gem5 Simulator System.  http://gem5.org
gem5 is copyrighted software; use the --copyright option for details.

gem5 compiled Nov 14 2018 23:14:03
gem5 started Nov 14 2018 23:26:08
gem5 executing on Chinmay-Laptop, pid 29541
command line: /home/chinmaysj96/Desktop/project/gem52/gem5/build/ARM/gem5.opt -d /home/chinmaysj96/Desktop/project/gem52/gem5/p3fft-srrip-final /home/chinmaysj96/Desktop/project/gem52/gem5/configs/example/se.py --cpu-type=TimingSimpleCPU --caches --l1d_size=1kB --l1d_assoc=4 --cacheline_size=32 --l2cache --num-l2caches=1 --l2_size=16kB --l2_assoc=16 --l1i_size=2kB --l1i_assoc=1 -c ./benchmarks/FFT/fft

Global frequency set at 1000000000000 ticks per second
base madhe ahe
replacement data 0x55e13a68fab0
replacement data type 0x55e13af09a80
blk-set is 0
replacement data 0x55e13aa68510
replacement data type 0x55e13af09a80
blk-set is 0
replacement data 0x55e13aa68500
replacement data type 0x55e13af09a80
blk-set is 0
replacement data 0x55e13aa684f0
replacement data type 0x55e13af09a80
blk-set is 0
replacement data 0x55e13aa684e0
replacement data type 0x55e13af09a80
blk-set is 1
replacement data 0x55e13aa684d0
replacement data type 0x55e13af09a80
blk-set is 1
replacement data 0x55e13aa684c0
replacement data type 0x55e13af09a80
blk-set is 1
replacement data 0x55e13aa684b0
replacement data type 0x55e13af09a80
blk-set is 1
replacement data 0x55e13aa684a0
replacement data type 0x55e13af09a80
blk-set is 2
replacement data 0x55e13aa68490
replacement data type 0x55e13af09a80
blk-set is 2
replacement data 0x55e13aa68480
replacement data type 0x55e13af09a80
blk-set is 2
replacement data 0x55e13aa68470
replacement data type 0x55e13af09a80
blk-set is 2
replacement data 0x55e13aa68460
replacement data type 0x55e13af09a80
blk-set is 3
replacement data 0x55e13aa68450
replacement data type 0x55e13af09a80
blk-set is 3
replacement data 0x55e13aa68440
replacement data type 0x55e13af09a80
blk-set is 3
replacement data 0x55e13aa68430
replacement data type 0x55e13af09a80
blk-set is 3
replacement data 0x55e13aa68420
replacement data type 0x55e13af09a80
blk-set is 4
replacement data 0x55e13aa68410
replacement data type 0x55e13af09a80
blk-set is 4
replacement data 0x55e13aa68400
replacement data type 0x55e13af09a80
blk-set is 4
replacement data 0x55e13aa683f0
replacement data type 0x55e13af09a80
blk-set is 4
replacement data 0x55e13aa683e0
replacement data type 0x55e13af09a80
blk-set is 5
replacement data 0x55e13aa683d0
replacement data type 0x55e13af09a80
blk-set is 5
replacement data 0x55e13aa683c0
replacement data type 0x55e13af09a80
blk-set is 5
replacement data 0x55e13aa68690
replacement data type 0x55e13af09a80
blk-set is 5
replacement data 0x55e13aa686a0
replacement data type 0x55e13af09a80
blk-set is 6
replacement data 0x55e13aa686b0
replacement data type 0x55e13af09a80
blk-set is 6
replacement data 0x55e13aa686c0
replacement data type 0x55e13af09a80
blk-set is 6
replacement data 0x55e13aa686d0
replacement data type 0x55e13af09a80
blk-set is 6
replacement data 0x55e13aa686e0
replacement data type 0x55e13af09a80
blk-set is 7
replacement data 0x55e13aa686f0
replacement data type 0x55e13af09a80
blk-set is 7
replacement data 0x55e13aa68700
replacement data type 0x55e13af09a80
blk-set is 7
replacement data 0x55e13aa68710
replacement data type 0x55e13af09a80
blk-set is 7
base madhe ahe
replacement data 0x55e13aa68720
replacement data type 0x55e13af09b00
blk-set is 0
replacement data 0x55e13aa68730
replacement data type 0x55e13af09b00
blk-set is 1
replacement data 0x55e13aa68740
replacement data type 0x55e13af09b00
blk-set is 2
replacement data 0x55e13aa68750
replacement data type 0x55e13af09b00
blk-set is 3
replacement data 0x55e13aa68760
replacement data type 0x55e13af09b00
blk-set is 4
replacement data 0x55e13aa68770
replacement data type 0x55e13af09b00
blk-set is 5
replacement data 0x55e13aa68780
replacement data type 0x55e13af09b00
blk-set is 6
replacement data 0x55e13aa68790
replacement data type 0x55e13af09b00
blk-set is 7
replacement data 0x55e13aa687a0
replacement data type 0x55e13af09b00
blk-set is 8
replacement data 0x55e13aa687b0
replacement data type 0x55e13af09b00
blk-set is 9
replacement data 0x55e13aa687c0
replacement data type 0x55e13af09b00
blk-set is 10
replacement data 0x55e13aa687d0
replacement data type 0x55e13af09b00
blk-set is 11
replacement data 0x55e13aa687e0
replacement data type 0x55e13af09b00
blk-set is 12
replacement data 0x55e13aa687f0
replacement data type 0x55e13af09b00
blk-set is 13
replacement data 0x55e13aa68800
replacement data type 0x55e13af09b00
blk-set is 14
replacement data 0x55e13aa68810
replacement data type 0x55e13af09b00
blk-set is 15
replacement data 0x55e13aa68820
replacement data type 0x55e13af09b00
blk-set is 16
replacement data 0x55e13aa68830
replacement data type 0x55e13af09b00
blk-set is 17
replacement data 0x55e13aa68840
replacement data type 0x55e13af09b00
blk-set is 18
replacement data 0x55e13aa68850
replacement data type 0x55e13af09b00
blk-set is 19
replacement data 0x55e13aa68860
replacement data type 0x55e13af09b00
blk-set is 20
replacement data 0x55e13aa68870
replacement data type 0x55e13af09b00
blk-set is 21
replacement data 0x55e13aa68880
replacement data type 0x55e13af09b00
blk-set is 22
replacement data 0x55e13aa68890
replacement data type 0x55e13af09b00
blk-set is 23
replacement data 0x55e13aa688a0
replacement data type 0x55e13af09b00
blk-set is 24
replacement data 0x55e13aa688b0
replacement data type 0x55e13af09b00
blk-set is 25
replacement data 0x55e13aa688c0
replacement data type 0x55e13af09b00
blk-set is 26
replacement data 0x55e13aa688d0
replacement data type 0x55e13af09b00
blk-set is 27
replacement data 0x55e13aa688e0
replacement data type 0x55e13af09b00
blk-set is 28
replacement data 0x55e13aa688f0
replacement data type 0x55e13af09b00
blk-set is 29
replacement data 0x55e13aa68900
replacement data type 0x55e13af09b00
blk-set is 30
replacement data 0x55e13aa68910
replacement data type 0x55e13af09b00
blk-set is 31
replacement data 0x55e13aa68920
replacement data type 0x55e13af09b00
blk-set is 32
replacement data 0x55e13aa68930
replacement data type 0x55e13af09b00
blk-set is 33
replacement data 0x55e13aa68940
replacement data type 0x55e13af09b00
blk-set is 34
replacement data 0x55e13aa68950
replacement data type 0x55e13af09b00
blk-set is 35
replacement data 0x55e13aa68960
replacement data type 0x55e13af09b00
blk-set is 36
replacement data 0x55e13aa68970
replacement data type 0x55e13af09b00
blk-set is 37
replacement data 0x55e13aa68980
replacement data type 0x55e13af09b00
blk-set is 38
replacement data 0x55e13aa68990
replacement data type 0x55e13af09b00
blk-set is 39
replacement data 0x55e13aa689a0
replacement data type 0x55e13af09b00
blk-set is 40
replacement data 0x55e13aa689b0
replacement data type 0x55e13af09b00
blk-set is 41
replacement data 0x55e13aa689c0
replacement data type 0x55e13af09b00
blk-set is 42
replacement data 0x55e13aa689d0
replacement data type 0x55e13af09b00
blk-set is 43
replacement data 0x55e13aa689e0
replacement data type 0x55e13af09b00
blk-set is 44
replacement data 0x55e13aa689f0
replacement data type 0x55e13af09b00
blk-set is 45
replacement data 0x55e13aa68a00
replacement data type 0x55e13af09b00
blk-set is 46
replacement data 0x55e13aa68a10
replacement data type 0x55e13af09b00
blk-set is 47
replacement data 0x55e13aa68a20
replacement data type 0x55e13af09b00
blk-set is 48
replacement data 0x55e13aa68a30
replacement data type 0x55e13af09b00
blk-set is 49
replacement data 0x55e13aa68a40
replacement data type 0x55e13af09b00
blk-set is 50
replacement data 0x55e13aa68a50
replacement data type 0x55e13af09b00
blk-set is 51
replacement data 0x55e13aa68a60
replacement data type 0x55e13af09b00
blk-set is 52
replacement data 0x55e13aa68a70
replacement data type 0x55e13af09b00
blk-set is 53
replacement data 0x55e13aa68a80
replacement data type 0x55e13af09b00
blk-set is 54
replacement data 0x55e13aa68a90
replacement data type 0x55e13af09b00
blk-set is 55
replacement data 0x55e13aa68aa0
replacement data type 0x55e13af09b00
blk-set is 56
replacement data 0x55e13aa68ab0
replacement data type 0x55e13af09b00
blk-set is 57
replacement data 0x55e13aa68ac0
replacement data type 0x55e13af09b00
blk-set is 58
replacement data 0x55e13aa68ad0
replacement data type 0x55e13af09b00
blk-set is 59
replacement data 0x55e13aa68ae0
replacement data type 0x55e13af09b00
blk-set is 60
replacement data 0x55e13aa68af0
replacement data type 0x55e13af09b00
blk-set is 61
replacement data 0x55e13aa68b00
replacement data type 0x55e13af09b00
blk-set is 62
replacement data 0x55e13aa68b10
replacement data type 0x55e13af09b00
blk-set is 63
base madhe ahe
replacement data 0x55e13aa68b20
replacement data type 0x55e13af09ac0
blk-set is 0
replacement data 0x55e13aa68b30
replacement data type 0x55e13af09ac0
blk-set is 0
replacement data 0x55e13aa68b40
replacement data type 0x55e13af09ac0
blk-set is 0
replacement data 0x55e13aa68b50
replacement data type 0x55e13af09ac0
blk-set is 0
replacement data 0x55e13aa68b60
replacement data type 0x55e13af09ac0
blk-set is 0
replacement data 0x55e13aa68b70
replacement data type 0x55e13af09ac0
blk-set is 0
replacement data 0x55e13aa68b80
replacement data type 0x55e13af09ac0
blk-set is 0
replacement data 0x55e13aa68b90
replacement data type 0x55e13af09ac0
blk-set is 0
replacement data 0x55e13aa68ba0
replacement data type 0x55e13af09ac0
blk-set is 0
replacement data 0x55e13aa68bb0
replacement data type 0x55e13af09ac0
blk-set is 0
replacement data 0x55e13aa68bc0
replacement data type 0x55e13af09ac0
blk-set is 0
replacement data 0x55e13aa68bd0
replacement data type 0x55e13af09ac0
blk-set is 0
replacement data 0x55e13aa68be0
replacement data type 0x55e13af09ac0
blk-set is 0
replacement data 0x55e13aa68bf0
replacement data type 0x55e13af09ac0
blk-set is 0
replacement data 0x55e13aa68c00
replacement data type 0x55e13af09ac0
blk-set is 0
replacement data 0x55e13aa68c10
replacement data type 0x55e13af09ac0
blk-set is 0
replacement data 0x55e13aa68c20
replacement data type 0x55e13af09ac0
blk-set is 1
replacement data 0x55e13aa68c30
replacement data type 0x55e13af09ac0
blk-set is 1
replacement data 0x55e13aa68c40
replacement data type 0x55e13af09ac0
blk-set is 1
replacement data 0x55e13aa68c50
replacement data type 0x55e13af09ac0
blk-set is 1
replacement data 0x55e13aa68c60
replacement data type 0x55e13af09ac0
blk-set is 1
replacement data 0x55e13aa68c70
replacement data type 0x55e13af09ac0
blk-set is 1
replacement data 0x55e13aa68c80
replacement data type 0x55e13af09ac0
blk-set is 1
replacement data 0x55e13aa68c90
replacement data type 0x55e13af09ac0
blk-set is 1
replacement data 0x55e13aa68ca0
replacement data type 0x55e13af09ac0
blk-set is 1
replacement data 0x55e13aa68cb0
replacement data type 0x55e13af09ac0
blk-set is 1
replacement data 0x55e13aa68cc0
replacement data type 0x55e13af09ac0
blk-set is 1
replacement data 0x55e13aa68cd0
replacement data type 0x55e13af09ac0
blk-set is 1
replacement data 0x55e13aa68ce0
replacement data type 0x55e13af09ac0
blk-set is 1
replacement data 0x55e13aa68cf0
replacement data type 0x55e13af09ac0
blk-set is 1
replacement data 0x55e13aa68d00
replacement data type 0x55e13af09ac0
blk-set is 1
replacement data 0x55e13aa68d10
replacement data type 0x55e13af09ac0
blk-set is 1
replacement data 0x55e13aa68d20
replacement data type 0x55e13af09ac0
blk-set is 2
replacement data 0x55e13aa68d30
replacement data type 0x55e13af09ac0
blk-set is 2
replacement data 0x55e13aa68d40
replacement data type 0x55e13af09ac0
blk-set is 2
replacement data 0x55e13aa68d50
replacement data type 0x55e13af09ac0
blk-set is 2
replacement data 0x55e13aa68d60
replacement data type 0x55e13af09ac0
blk-set is 2
replacement data 0x55e13aa68d70
replacement data type 0x55e13af09ac0
blk-set is 2
replacement data 0x55e13aa68d80
replacement data type 0x55e13af09ac0
blk-set is 2
replacement data 0x55e13aa68d90
replacement data type 0x55e13af09ac0
blk-set is 2
replacement data 0x55e13aa68da0
replacement data type 0x55e13af09ac0
blk-set is 2
replacement data 0x55e13aa68db0
replacement data type 0x55e13af09ac0
blk-set is 2
replacement data 0x55e13aa68dc0
replacement data type 0x55e13af09ac0
blk-set is 2
replacement data 0x55e13aa68dd0
replacement data type 0x55e13af09ac0
blk-set is 2
replacement data 0x55e13aa68de0
replacement data type 0x55e13af09ac0
blk-set is 2
replacement data 0x55e13aa68df0
replacement data type 0x55e13af09ac0
blk-set is 2
replacement data 0x55e13aa68e00
replacement data type 0x55e13af09ac0
blk-set is 2
replacement data 0x55e13aa68e10
replacement data type 0x55e13af09ac0
blk-set is 2
replacement data 0x55e13aa68e20
replacement data type 0x55e13af09ac0
blk-set is 3
replacement data 0x55e13aa68e30
replacement data type 0x55e13af09ac0
blk-set is 3
replacement data 0x55e13aa68e40
replacement data type 0x55e13af09ac0
blk-set is 3
replacement data 0x55e13aa68e50
replacement data type 0x55e13af09ac0
blk-set is 3
replacement data 0x55e13aa68e60
replacement data type 0x55e13af09ac0
blk-set is 3
replacement data 0x55e13aa68e70
replacement data type 0x55e13af09ac0
blk-set is 3
replacement data 0x55e13aa68e80
replacement data type 0x55e13af09ac0
blk-set is 3
replacement data 0x55e13aa68e90
replacement data type 0x55e13af09ac0
blk-set is 3
replacement data 0x55e13aa68ea0
replacement data type 0x55e13af09ac0
blk-set is 3
replacement data 0x55e13aa68eb0
replacement data type 0x55e13af09ac0
blk-set is 3
replacement data 0x55e13aa68ec0
replacement data type 0x55e13af09ac0
blk-set is 3
replacement data 0x55e13aa68ed0
replacement data type 0x55e13af09ac0
blk-set is 3
replacement data 0x55e13aa68ee0
replacement data type 0x55e13af09ac0
blk-set is 3
replacement data 0x55e13aa68ef0
replacement data type 0x55e13af09ac0
blk-set is 3
replacement data 0x55e13aa68f00
replacement data type 0x55e13af09ac0
blk-set is 3
replacement data 0x55e13aa68f10
replacement data type 0x55e13af09ac0
blk-set is 3
replacement data 0x55e13aa68f20
replacement data type 0x55e13af09ac0
blk-set is 4
replacement data 0x55e13aa68f30
replacement data type 0x55e13af09ac0
blk-set is 4
replacement data 0x55e13aa68f40
replacement data type 0x55e13af09ac0
blk-set is 4
replacement data 0x55e13aa68f50
replacement data type 0x55e13af09ac0
blk-set is 4
replacement data 0x55e13aa68f60
replacement data type 0x55e13af09ac0
blk-set is 4
replacement data 0x55e13aa68f70
replacement data type 0x55e13af09ac0
blk-set is 4
replacement data 0x55e13aa68f80
replacement data type 0x55e13af09ac0
blk-set is 4
replacement data 0x55e13aa68f90
replacement data type 0x55e13af09ac0
blk-set is 4
replacement data 0x55e13aa68fa0
replacement data type 0x55e13af09ac0
blk-set is 4
replacement data 0x55e13aa68fb0
replacement data type 0x55e13af09ac0
blk-set is 4
replacement data 0x55e13aa68fc0
replacement data type 0x55e13af09ac0
blk-set is 4
replacement data 0x55e13aa68fd0
replacement data type 0x55e13af09ac0
blk-set is 4
replacement data 0x55e13aa68fe0
replacement data type 0x55e13af09ac0
blk-set is 4
replacement data 0x55e13aa68ff0
replacement data type 0x55e13af09ac0
blk-set is 4
replacement data 0x55e13aa69000
replacement data type 0x55e13af09ac0
blk-set is 4
replacement data 0x55e13aa69010
replacement data type 0x55e13af09ac0
blk-set is 4
replacement data 0x55e13aa69020
replacement data type 0x55e13af09ac0
blk-set is 5
replacement data 0x55e13aa69030
replacement data type 0x55e13af09ac0
blk-set is 5
replacement data 0x55e13aa69040
replacement data type 0x55e13af09ac0
blk-set is 5
replacement data 0x55e13aa69050
replacement data type 0x55e13af09ac0
blk-set is 5
replacement data 0x55e13aa69060
replacement data type 0x55e13af09ac0
blk-set is 5
replacement data 0x55e13aa69070
replacement data type 0x55e13af09ac0
blk-set is 5
replacement data 0x55e13aa69080
replacement data type 0x55e13af09ac0
blk-set is 5
replacement data 0x55e13aa69090
replacement data type 0x55e13af09ac0
blk-set is 5
replacement data 0x55e13aa690a0
replacement data type 0x55e13af09ac0
blk-set is 5
replacement data 0x55e13aa690b0
replacement data type 0x55e13af09ac0
blk-set is 5
replacement data 0x55e13aa690c0
replacement data type 0x55e13af09ac0
blk-set is 5
replacement data 0x55e13aa690d0
replacement data type 0x55e13af09ac0
blk-set is 5
replacement data 0x55e13aa690e0
replacement data type 0x55e13af09ac0
blk-set is 5
replacement data 0x55e13aa690f0
replacement data type 0x55e13af09ac0
blk-set is 5
replacement data 0x55e13aa69100
replacement data type 0x55e13af09ac0
blk-set is 5
replacement data 0x55e13aa69110
replacement data type 0x55e13af09ac0
blk-set is 5
replacement data 0x55e13aa69120
replacement data type 0x55e13af09ac0
blk-set is 6
replacement data 0x55e13aa69130
replacement data type 0x55e13af09ac0
blk-set is 6
replacement data 0x55e13aa69140
replacement data type 0x55e13af09ac0
blk-set is 6
replacement data 0x55e13aa69150
replacement data type 0x55e13af09ac0
blk-set is 6
replacement data 0x55e13aa69160
replacement data type 0x55e13af09ac0
blk-set is 6
replacement data 0x55e13aa69170
replacement data type 0x55e13af09ac0
blk-set is 6
replacement data 0x55e13aa69180
replacement data type 0x55e13af09ac0
blk-set is 6
replacement data 0x55e13aa69190
replacement data type 0x55e13af09ac0
blk-set is 6
replacement data 0x55e13aa691a0
replacement data type 0x55e13af09ac0
blk-set is 6
replacement data 0x55e13aa691b0
replacement data type 0x55e13af09ac0
blk-set is 6
replacement data 0x55e13aa691c0
replacement data type 0x55e13af09ac0
blk-set is 6
replacement data 0x55e13aa691d0
replacement data type 0x55e13af09ac0
blk-set is 6
replacement data 0x55e13aa691e0
replacement data type 0x55e13af09ac0
blk-set is 6
replacement data 0x55e13aa691f0
replacement data type 0x55e13af09ac0
blk-set is 6
replacement data 0x55e13aa69200
replacement data type 0x55e13af09ac0
blk-set is 6
replacement data 0x55e13aa69210
replacement data type 0x55e13af09ac0
blk-set is 6
replacement data 0x55e13aa69220
replacement data type 0x55e13af09ac0
blk-set is 7
replacement data 0x55e13aa69230
replacement data type 0x55e13af09ac0
blk-set is 7
replacement data 0x55e13aa69240
replacement data type 0x55e13af09ac0
blk-set is 7
replacement data 0x55e13aa69250
replacement data type 0x55e13af09ac0
blk-set is 7
replacement data 0x55e13aa69260
replacement data type 0x55e13af09ac0
blk-set is 7
replacement data 0x55e13aa69270
replacement data type 0x55e13af09ac0
blk-set is 7
replacement data 0x55e13aa69280
replacement data type 0x55e13af09ac0
blk-set is 7
replacement data 0x55e13aa69290
replacement data type 0x55e13af09ac0
blk-set is 7
replacement data 0x55e13aa692a0
replacement data type 0x55e13af09ac0
blk-set is 7
replacement data 0x55e13aa692b0
replacement data type 0x55e13af09ac0
blk-set is 7
replacement data 0x55e13aa692c0
replacement data type 0x55e13af09ac0
blk-set is 7
replacement data 0x55e13aa692d0
replacement data type 0x55e13af09ac0
blk-set is 7
replacement data 0x55e13aa692e0
replacement data type 0x55e13af09ac0
blk-set is 7
replacement data 0x55e13aa692f0
replacement data type 0x55e13af09ac0
blk-set is 7
replacement data 0x55e13aa69300
replacement data type 0x55e13af09ac0
blk-set is 7
replacement data 0x55e13aa69310
replacement data type 0x55e13af09ac0
blk-set is 7
replacement data 0x55e13aa69320
replacement data type 0x55e13af09ac0
blk-set is 8
replacement data 0x55e13aa69330
replacement data type 0x55e13af09ac0
blk-set is 8
replacement data 0x55e13aa69340
replacement data type 0x55e13af09ac0
blk-set is 8
replacement data 0x55e13aa69350
replacement data type 0x55e13af09ac0
blk-set is 8
replacement data 0x55e13aa69360
replacement data type 0x55e13af09ac0
blk-set is 8
replacement data 0x55e13aa69370
replacement data type 0x55e13af09ac0
blk-set is 8
replacement data 0x55e13aa69380
replacement data type 0x55e13af09ac0
blk-set is 8
replacement data 0x55e13aa69390
replacement data type 0x55e13af09ac0
blk-set is 8
replacement data 0x55e13aa693a0
replacement data type 0x55e13af09ac0
blk-set is 8
replacement data 0x55e13aa693b0
replacement data type 0x55e13af09ac0
blk-set is 8
replacement data 0x55e13aa693c0
replacement data type 0x55e13af09ac0
blk-set is 8
replacement data 0x55e13aa693d0
replacement data type 0x55e13af09ac0
blk-set is 8
replacement data 0x55e13aa693e0
replacement data type 0x55e13af09ac0
blk-set is 8
replacement data 0x55e13aa693f0
replacement data type 0x55e13af09ac0
blk-set is 8
replacement data 0x55e13aa69400
replacement data type 0x55e13af09ac0
blk-set is 8
replacement data 0x55e13aa69410
replacement data type 0x55e13af09ac0
blk-set is 8
replacement data 0x55e13aa69420
replacement data type 0x55e13af09ac0
blk-set is 9
replacement data 0x55e13aa69430
replacement data type 0x55e13af09ac0
blk-set is 9
replacement data 0x55e13aa69440
replacement data type 0x55e13af09ac0
blk-set is 9
replacement data 0x55e13aa69450
replacement data type 0x55e13af09ac0
blk-set is 9
replacement data 0x55e13aa69460
replacement data type 0x55e13af09ac0
blk-set is 9
replacement data 0x55e13aa69470
replacement data type 0x55e13af09ac0
blk-set is 9
replacement data 0x55e13aa69480
replacement data type 0x55e13af09ac0
blk-set is 9
replacement data 0x55e13aa69490
replacement data type 0x55e13af09ac0
blk-set is 9
replacement data 0x55e13aa694a0
replacement data type 0x55e13af09ac0
blk-set is 9
replacement data 0x55e13aa694b0
replacement data type 0x55e13af09ac0
blk-set is 9
replacement data 0x55e13aa694c0
replacement data type 0x55e13af09ac0
blk-set is 9
replacement data 0x55e13aa694d0
replacement data type 0x55e13af09ac0
blk-set is 9
replacement data 0x55e13aa694e0
replacement data type 0x55e13af09ac0
blk-set is 9
replacement data 0x55e13aa694f0
replacement data type 0x55e13af09ac0
blk-set is 9
replacement data 0x55e13aa69500
replacement data type 0x55e13af09ac0
blk-set is 9
replacement data 0x55e13aa69510
replacement data type 0x55e13af09ac0
blk-set is 9
replacement data 0x55e13aa69520
replacement data type 0x55e13af09ac0
blk-set is 10
replacement data 0x55e13aa69530
replacement data type 0x55e13af09ac0
blk-set is 10
replacement data 0x55e13aa69540
replacement data type 0x55e13af09ac0
blk-set is 10
replacement data 0x55e13aa69550
replacement data type 0x55e13af09ac0
blk-set is 10
replacement data 0x55e13aa69560
replacement data type 0x55e13af09ac0
blk-set is 10
replacement data 0x55e13aa69570
replacement data type 0x55e13af09ac0
blk-set is 10
replacement data 0x55e13aa69580
replacement data type 0x55e13af09ac0
blk-set is 10
replacement data 0x55e13aa69590
replacement data type 0x55e13af09ac0
blk-set is 10
replacement data 0x55e13aa695a0
replacement data type 0x55e13af09ac0
blk-set is 10
replacement data 0x55e13aa695b0
replacement data type 0x55e13af09ac0
blk-set is 10
replacement data 0x55e13aa695c0
replacement data type 0x55e13af09ac0
blk-set is 10
replacement data 0x55e13aa695d0
replacement data type 0x55e13af09ac0
blk-set is 10
replacement data 0x55e13aa695e0
replacement data type 0x55e13af09ac0
blk-set is 10
replacement data 0x55e13aa695f0
replacement data type 0x55e13af09ac0
blk-set is 10
replacement data 0x55e13aa69600
replacement data type 0x55e13af09ac0
blk-set is 10
replacement data 0x55e13aa69610
replacement data type 0x55e13af09ac0
blk-set is 10
replacement data 0x55e13aa69620
replacement data type 0x55e13af09ac0
blk-set is 11
replacement data 0x55e13aa69630
replacement data type 0x55e13af09ac0
blk-set is 11
replacement data 0x55e13aa69640
replacement data type 0x55e13af09ac0
blk-set is 11
replacement data 0x55e13aa69650
replacement data type 0x55e13af09ac0
blk-set is 11
replacement data 0x55e13aa69660
replacement data type 0x55e13af09ac0
blk-set is 11
replacement data 0x55e13aa69670
replacement data type 0x55e13af09ac0
blk-set is 11
replacement data 0x55e13aa69680
replacement data type 0x55e13af09ac0
blk-set is 11
replacement data 0x55e13aa69690
replacement data type 0x55e13af09ac0
blk-set is 11
replacement data 0x55e13aa696a0
replacement data type 0x55e13af09ac0
blk-set is 11
replacement data 0x55e13aa696b0
replacement data type 0x55e13af09ac0
blk-set is 11
replacement data 0x55e13aa696c0
replacement data type 0x55e13af09ac0
blk-set is 11
replacement data 0x55e13aa696d0
replacement data type 0x55e13af09ac0
blk-set is 11
replacement data 0x55e13aa696e0
replacement data type 0x55e13af09ac0
blk-set is 11
replacement data 0x55e13aa696f0
replacement data type 0x55e13af09ac0
blk-set is 11
replacement data 0x55e13aa69700
replacement data type 0x55e13af09ac0
blk-set is 11
replacement data 0x55e13aa69710
replacement data type 0x55e13af09ac0
blk-set is 11
replacement data 0x55e13aa69720
replacement data type 0x55e13af09ac0
blk-set is 12
replacement data 0x55e13aa69730
replacement data type 0x55e13af09ac0
blk-set is 12
replacement data 0x55e13aa69740
replacement data type 0x55e13af09ac0
blk-set is 12
replacement data 0x55e13aa69750
replacement data type 0x55e13af09ac0
blk-set is 12
replacement data 0x55e13aa69760
replacement data type 0x55e13af09ac0
blk-set is 12
replacement data 0x55e13aa69770
replacement data type 0x55e13af09ac0
blk-set is 12
replacement data 0x55e13aa69780
replacement data type 0x55e13af09ac0
blk-set is 12
replacement data 0x55e13aa69790
replacement data type 0x55e13af09ac0
blk-set is 12
replacement data 0x55e13aa697a0
replacement data type 0x55e13af09ac0
blk-set is 12
replacement data 0x55e13aa697b0
replacement data type 0x55e13af09ac0
blk-set is 12
replacement data 0x55e13aa697c0
replacement data type 0x55e13af09ac0
blk-set is 12
replacement data 0x55e13aa697d0
replacement data type 0x55e13af09ac0
blk-set is 12
replacement data 0x55e13aa697e0
replacement data type 0x55e13af09ac0
blk-set is 12
replacement data 0x55e13aa697f0
replacement data type 0x55e13af09ac0
blk-set is 12
replacement data 0x55e13aa69800
replacement data type 0x55e13af09ac0
blk-set is 12
replacement data 0x55e13aa69810
replacement data type 0x55e13af09ac0
blk-set is 12
replacement data 0x55e13aa69820
replacement data type 0x55e13af09ac0
blk-set is 13
replacement data 0x55e13aa69830
replacement data type 0x55e13af09ac0
blk-set is 13
replacement data 0x55e13aa69840
replacement data type 0x55e13af09ac0
blk-set is 13
replacement data 0x55e13aa69850
replacement data type 0x55e13af09ac0
blk-set is 13
replacement data 0x55e13aa69860
replacement data type 0x55e13af09ac0
blk-set is 13
replacement data 0x55e13aa69870
replacement data type 0x55e13af09ac0
blk-set is 13
replacement data 0x55e13aa69880
replacement data type 0x55e13af09ac0
blk-set is 13
replacement data 0x55e13aa69890
replacement data type 0x55e13af09ac0
blk-set is 13
replacement data 0x55e13aa698a0
replacement data type 0x55e13af09ac0
blk-set is 13
replacement data 0x55e13aa698b0
replacement data type 0x55e13af09ac0
blk-set is 13
replacement data 0x55e13aa698c0
replacement data type 0x55e13af09ac0
blk-set is 13
replacement data 0x55e13aa698d0
replacement data type 0x55e13af09ac0
blk-set is 13
replacement data 0x55e13aa698e0
replacement data type 0x55e13af09ac0
blk-set is 13
replacement data 0x55e13aa698f0
replacement data type 0x55e13af09ac0
blk-set is 13
replacement data 0x55e13aa69900
replacement data type 0x55e13af09ac0
blk-set is 13
replacement data 0x55e13aa69910
replacement data type 0x55e13af09ac0
blk-set is 13
replacement data 0x55e13aa69920
replacement data type 0x55e13af09ac0
blk-set is 14
replacement data 0x55e13aa69930
replacement data type 0x55e13af09ac0
blk-set is 14
replacement data 0x55e13aa69940
replacement data type 0x55e13af09ac0
blk-set is 14
replacement data 0x55e13aa69950
replacement data type 0x55e13af09ac0
blk-set is 14
replacement data 0x55e13aa69960
replacement data type 0x55e13af09ac0
blk-set is 14
replacement data 0x55e13aa69970
replacement data type 0x55e13af09ac0
blk-set is 14
replacement data 0x55e13aa69980
replacement data type 0x55e13af09ac0
blk-set is 14
replacement data 0x55e13aa69990
replacement data type 0x55e13af09ac0
blk-set is 14
replacement data 0x55e13aa699a0
replacement data type 0x55e13af09ac0
blk-set is 14
replacement data 0x55e13aa699b0
replacement data type 0x55e13af09ac0
blk-set is 14
replacement data 0x55e13aa699c0
replacement data type 0x55e13af09ac0
blk-set is 14
replacement data 0x55e13aa699d0
replacement data type 0x55e13af09ac0
blk-set is 14
replacement data 0x55e13aa699e0
replacement data type 0x55e13af09ac0
blk-set is 14
replacement data 0x55e13aa699f0
replacement data type 0x55e13af09ac0
blk-set is 14
replacement data 0x55e13aa69a00
replacement data type 0x55e13af09ac0
blk-set is 14
replacement data 0x55e13aa69a10
replacement data type 0x55e13af09ac0
blk-set is 14
replacement data 0x55e13aa69a20
replacement data type 0x55e13af09ac0
blk-set is 15
replacement data 0x55e13aa69a30
replacement data type 0x55e13af09ac0
blk-set is 15
replacement data 0x55e13aa69a40
replacement data type 0x55e13af09ac0
blk-set is 15
replacement data 0x55e13aa69a50
replacement data type 0x55e13af09ac0
blk-set is 15
replacement data 0x55e13aa69a60
replacement data type 0x55e13af09ac0
blk-set is 15
replacement data 0x55e13aa69a70
replacement data type 0x55e13af09ac0
blk-set is 15
replacement data 0x55e13aa69a80
replacement data type 0x55e13af09ac0
blk-set is 15
replacement data 0x55e13aa69a90
replacement data type 0x55e13af09ac0
blk-set is 15
replacement data 0x55e13aa69aa0
replacement data type 0x55e13af09ac0
blk-set is 15
replacement data 0x55e13aa69ab0
replacement data type 0x55e13af09ac0
blk-set is 15
replacement data 0x55e13aa69ac0
replacement data type 0x55e13af09ac0
blk-set is 15
replacement data 0x55e13aa69ad0
replacement data type 0x55e13af09ac0
blk-set is 15
replacement data 0x55e13aa69ae0
replacement data type 0x55e13af09ac0
blk-set is 15
replacement data 0x55e13aa69af0
replacement data type 0x55e13af09ac0
blk-set is 15
replacement data 0x55e13aa69b00
replacement data type 0x55e13af09ac0
blk-set is 15
replacement data 0x55e13aa69b10
replacement data type 0x55e13af09ac0
blk-set is 15
replacement data 0x55e13aa69b20
replacement data type 0x55e13af09ac0
blk-set is 16
replacement data 0x55e13aa69b30
replacement data type 0x55e13af09ac0
blk-set is 16
replacement data 0x55e13aa69b40
replacement data type 0x55e13af09ac0
blk-set is 16
replacement data 0x55e13aa69b50
replacement data type 0x55e13af09ac0
blk-set is 16
replacement data 0x55e13aa69b60
replacement data type 0x55e13af09ac0
blk-set is 16
replacement data 0x55e13aa69b70
replacement data type 0x55e13af09ac0
blk-set is 16
replacement data 0x55e13aa69b80
replacement data type 0x55e13af09ac0
blk-set is 16
replacement data 0x55e13aa69b90
replacement data type 0x55e13af09ac0
blk-set is 16
replacement data 0x55e13aa69ba0
replacement data type 0x55e13af09ac0
blk-set is 16
replacement data 0x55e13aa69bb0
replacement data type 0x55e13af09ac0
blk-set is 16
replacement data 0x55e13aa69bc0
replacement data type 0x55e13af09ac0
blk-set is 16
replacement data 0x55e13aa69bd0
replacement data type 0x55e13af09ac0
blk-set is 16
replacement data 0x55e13aa69be0
replacement data type 0x55e13af09ac0
blk-set is 16
replacement data 0x55e13aa69bf0
replacement data type 0x55e13af09ac0
blk-set is 16
replacement data 0x55e13aa69c00
replacement data type 0x55e13af09ac0
blk-set is 16
replacement data 0x55e13aa69c10
replacement data type 0x55e13af09ac0
blk-set is 16
replacement data 0x55e13aa69c20
replacement data type 0x55e13af09ac0
blk-set is 17
replacement data 0x55e13aa69c30
replacement data type 0x55e13af09ac0
blk-set is 17
replacement data 0x55e13aa69c40
replacement data type 0x55e13af09ac0
blk-set is 17
replacement data 0x55e13aa69c50
replacement data type 0x55e13af09ac0
blk-set is 17
replacement data 0x55e13aa69c60
replacement data type 0x55e13af09ac0
blk-set is 17
replacement data 0x55e13aa69c70
replacement data type 0x55e13af09ac0
blk-set is 17
replacement data 0x55e13aa69c80
replacement data type 0x55e13af09ac0
blk-set is 17
replacement data 0x55e13aa69c90
replacement data type 0x55e13af09ac0
blk-set is 17
replacement data 0x55e13aa69ca0
replacement data type 0x55e13af09ac0
blk-set is 17
replacement data 0x55e13aa69cb0
replacement data type 0x55e13af09ac0
blk-set is 17
replacement data 0x55e13aa69cc0
replacement data type 0x55e13af09ac0
blk-set is 17
replacement data 0x55e13aa69cd0
replacement data type 0x55e13af09ac0
blk-set is 17
replacement data 0x55e13aa69ce0
replacement data type 0x55e13af09ac0
blk-set is 17
replacement data 0x55e13aa69cf0
replacement data type 0x55e13af09ac0
blk-set is 17
replacement data 0x55e13aa69d00
replacement data type 0x55e13af09ac0
blk-set is 17
replacement data 0x55e13aa69d10
replacement data type 0x55e13af09ac0
blk-set is 17
replacement data 0x55e13aa69d20
replacement data type 0x55e13af09ac0
blk-set is 18
replacement data 0x55e13aa69d30
replacement data type 0x55e13af09ac0
blk-set is 18
replacement data 0x55e13aa69d40
replacement data type 0x55e13af09ac0
blk-set is 18
replacement data 0x55e13aa69d50
replacement data type 0x55e13af09ac0
blk-set is 18
replacement data 0x55e13aa69d60
replacement data type 0x55e13af09ac0
blk-set is 18
replacement data 0x55e13aa69d70
replacement data type 0x55e13af09ac0
blk-set is 18
replacement data 0x55e13aa69d80
replacement data type 0x55e13af09ac0
blk-set is 18
replacement data 0x55e13aa69d90
replacement data type 0x55e13af09ac0
blk-set is 18
replacement data 0x55e13aa69da0
replacement data type 0x55e13af09ac0
blk-set is 18
replacement data 0x55e13aa69db0
replacement data type 0x55e13af09ac0
blk-set is 18
replacement data 0x55e13aa69dc0
replacement data type 0x55e13af09ac0
blk-set is 18
replacement data 0x55e13aa69dd0
replacement data type 0x55e13af09ac0
blk-set is 18
replacement data 0x55e13aa69de0
replacement data type 0x55e13af09ac0
blk-set is 18
replacement data 0x55e13aa69df0
replacement data type 0x55e13af09ac0
blk-set is 18
replacement data 0x55e13aa69e00
replacement data type 0x55e13af09ac0
blk-set is 18
replacement data 0x55e13aa69e10
replacement data type 0x55e13af09ac0
blk-set is 18
replacement data 0x55e13aa69e20
replacement data type 0x55e13af09ac0
blk-set is 19
replacement data 0x55e13aa69e30
replacement data type 0x55e13af09ac0
blk-set is 19
replacement data 0x55e13aa69e40
replacement data type 0x55e13af09ac0
blk-set is 19
replacement data 0x55e13aa69e50
replacement data type 0x55e13af09ac0
blk-set is 19
replacement data 0x55e13aa69e60
replacement data type 0x55e13af09ac0
blk-set is 19
replacement data 0x55e13aa69e70
replacement data type 0x55e13af09ac0
blk-set is 19
replacement data 0x55e13aa69e80
replacement data type 0x55e13af09ac0
blk-set is 19
replacement data 0x55e13aa69e90
replacement data type 0x55e13af09ac0
blk-set is 19
replacement data 0x55e13aa69ea0
replacement data type 0x55e13af09ac0
blk-set is 19
replacement data 0x55e13aa69eb0
replacement data type 0x55e13af09ac0
blk-set is 19
replacement data 0x55e13aa69ec0
replacement data type 0x55e13af09ac0
blk-set is 19
replacement data 0x55e13aa69ed0
replacement data type 0x55e13af09ac0
blk-set is 19
replacement data 0x55e13aa69ee0
replacement data type 0x55e13af09ac0
blk-set is 19
replacement data 0x55e13aa69ef0
replacement data type 0x55e13af09ac0
blk-set is 19
replacement data 0x55e13aa69f00
replacement data type 0x55e13af09ac0
blk-set is 19
replacement data 0x55e13aa69f10
replacement data type 0x55e13af09ac0
blk-set is 19
replacement data 0x55e13aa69f20
replacement data type 0x55e13af09ac0
blk-set is 20
replacement data 0x55e13aa69f30
replacement data type 0x55e13af09ac0
blk-set is 20
replacement data 0x55e13aa69f40
replacement data type 0x55e13af09ac0
blk-set is 20
replacement data 0x55e13aa69f50
replacement data type 0x55e13af09ac0
blk-set is 20
replacement data 0x55e13aa69f60
replacement data type 0x55e13af09ac0
blk-set is 20
replacement data 0x55e13aa69f70
replacement data type 0x55e13af09ac0
blk-set is 20
replacement data 0x55e13aa69f80
replacement data type 0x55e13af09ac0
blk-set is 20
replacement data 0x55e13aa69f90
replacement data type 0x55e13af09ac0
blk-set is 20
replacement data 0x55e13aa69fa0
replacement data type 0x55e13af09ac0
blk-set is 20
replacement data 0x55e13aa69fb0
replacement data type 0x55e13af09ac0
blk-set is 20
replacement data 0x55e13aa69fc0
replacement data type 0x55e13af09ac0
blk-set is 20
replacement data 0x55e13aa69fd0
replacement data type 0x55e13af09ac0
blk-set is 20
replacement data 0x55e13aa69fe0
replacement data type 0x55e13af09ac0
blk-set is 20
replacement data 0x55e13aa69ff0
replacement data type 0x55e13af09ac0
blk-set is 20
replacement data 0x55e13b3ba000
replacement data type 0x55e13af09ac0
blk-set is 20
replacement data 0x55e13b3ba010
replacement data type 0x55e13af09ac0
blk-set is 20
replacement data 0x55e13b3ba020
replacement data type 0x55e13af09ac0
blk-set is 21
replacement data 0x55e13b3ba030
replacement data type 0x55e13af09ac0
blk-set is 21
replacement data 0x55e13b3ba040
replacement data type 0x55e13af09ac0
blk-set is 21
replacement data 0x55e13b3ba050
replacement data type 0x55e13af09ac0
blk-set is 21
replacement data 0x55e13b3ba060
replacement data type 0x55e13af09ac0
blk-set is 21
replacement data 0x55e13b3ba070
replacement data type 0x55e13af09ac0
blk-set is 21
replacement data 0x55e13b3ba080
replacement data type 0x55e13af09ac0
blk-set is 21
replacement data 0x55e13b3ba090
replacement data type 0x55e13af09ac0
blk-set is 21
replacement data 0x55e13b3ba0a0
replacement data type 0x55e13af09ac0
blk-set is 21
replacement data 0x55e13b3ba0b0
replacement data type 0x55e13af09ac0
blk-set is 21
replacement data 0x55e13b3ba0c0
replacement data type 0x55e13af09ac0
blk-set is 21
replacement data 0x55e13b3ba0d0
replacement data type 0x55e13af09ac0
blk-set is 21
replacement data 0x55e13b3ba0e0
replacement data type 0x55e13af09ac0
blk-set is 21
replacement data 0x55e13b3ba0f0
replacement data type 0x55e13af09ac0
blk-set is 21
replacement data 0x55e13b3ba100
replacement data type 0x55e13af09ac0
blk-set is 21
replacement data 0x55e13b3ba110
replacement data type 0x55e13af09ac0
blk-set is 21
replacement data 0x55e13b3ba120
replacement data type 0x55e13af09ac0
blk-set is 22
replacement data 0x55e13b3ba130
replacement data type 0x55e13af09ac0
blk-set is 22
replacement data 0x55e13b3ba140
replacement data type 0x55e13af09ac0
blk-set is 22
replacement data 0x55e13b3ba150
replacement data type 0x55e13af09ac0
blk-set is 22
replacement data 0x55e13b3ba160
replacement data type 0x55e13af09ac0
blk-set is 22
replacement data 0x55e13b3ba170
replacement data type 0x55e13af09ac0
blk-set is 22
replacement data 0x55e13b3ba180
replacement data type 0x55e13af09ac0
blk-set is 22
replacement data 0x55e13b3ba190
replacement data type 0x55e13af09ac0
blk-set is 22
replacement data 0x55e13b3ba1a0
replacement data type 0x55e13af09ac0
blk-set is 22
replacement data 0x55e13b3ba1b0
replacement data type 0x55e13af09ac0
blk-set is 22
replacement data 0x55e13b3ba1c0
replacement data type 0x55e13af09ac0
blk-set is 22
replacement data 0x55e13b3ba1d0
replacement data type 0x55e13af09ac0
blk-set is 22
replacement data 0x55e13b3ba1e0
replacement data type 0x55e13af09ac0
blk-set is 22
replacement data 0x55e13b3ba1f0
replacement data type 0x55e13af09ac0
blk-set is 22
replacement data 0x55e13b3ba200
replacement data type 0x55e13af09ac0
blk-set is 22
replacement data 0x55e13b3ba210
replacement data type 0x55e13af09ac0
blk-set is 22
replacement data 0x55e13b3ba220
replacement data type 0x55e13af09ac0
blk-set is 23
replacement data 0x55e13b3ba230
replacement data type 0x55e13af09ac0
blk-set is 23
replacement data 0x55e13b3ba240
replacement data type 0x55e13af09ac0
blk-set is 23
replacement data 0x55e13b3ba250
replacement data type 0x55e13af09ac0
blk-set is 23
replacement data 0x55e13b3ba260
replacement data type 0x55e13af09ac0
blk-set is 23
replacement data 0x55e13b3ba270
replacement data type 0x55e13af09ac0
blk-set is 23
replacement data 0x55e13b3ba280
replacement data type 0x55e13af09ac0
blk-set is 23
replacement data 0x55e13b3ba290
replacement data type 0x55e13af09ac0
blk-set is 23
replacement data 0x55e13b3ba2a0
replacement data type 0x55e13af09ac0
blk-set is 23
replacement data 0x55e13b3ba2b0
replacement data type 0x55e13af09ac0
blk-set is 23
replacement data 0x55e13b3ba2c0
replacement data type 0x55e13af09ac0
blk-set is 23
replacement data 0x55e13b3ba2d0
replacement data type 0x55e13af09ac0
blk-set is 23
replacement data 0x55e13b3ba2e0
replacement data type 0x55e13af09ac0
blk-set is 23
replacement data 0x55e13b3ba2f0
replacement data type 0x55e13af09ac0
blk-set is 23
replacement data 0x55e13b3ba300
replacement data type 0x55e13af09ac0
blk-set is 23
replacement data 0x55e13b3ba310
replacement data type 0x55e13af09ac0
blk-set is 23
replacement data 0x55e13b3ba320
replacement data type 0x55e13af09ac0
blk-set is 24
replacement data 0x55e13b3ba330
replacement data type 0x55e13af09ac0
blk-set is 24
replacement data 0x55e13b3ba340
replacement data type 0x55e13af09ac0
blk-set is 24
replacement data 0x55e13b3ba350
replacement data type 0x55e13af09ac0
blk-set is 24
replacement data 0x55e13b3ba360
replacement data type 0x55e13af09ac0
blk-set is 24
replacement data 0x55e13b3ba370
replacement data type 0x55e13af09ac0
blk-set is 24
replacement data 0x55e13b3ba380
replacement data type 0x55e13af09ac0
blk-set is 24
replacement data 0x55e13b3ba390
replacement data type 0x55e13af09ac0
blk-set is 24
replacement data 0x55e13b3ba3a0
replacement data type 0x55e13af09ac0
blk-set is 24
replacement data 0x55e13b3ba3b0
replacement data type 0x55e13af09ac0
blk-set is 24
replacement data 0x55e13b3ba3c0
replacement data type 0x55e13af09ac0
blk-set is 24
replacement data 0x55e13b3ba3d0
replacement data type 0x55e13af09ac0
blk-set is 24
replacement data 0x55e13b3ba3e0
replacement data type 0x55e13af09ac0
blk-set is 24
replacement data 0x55e13b3ba3f0
replacement data type 0x55e13af09ac0
blk-set is 24
replacement data 0x55e13b3ba400
replacement data type 0x55e13af09ac0
blk-set is 24
replacement data 0x55e13b3ba410
replacement data type 0x55e13af09ac0
blk-set is 24
replacement data 0x55e13b3ba420
replacement data type 0x55e13af09ac0
blk-set is 25
replacement data 0x55e13b3ba430
replacement data type 0x55e13af09ac0
blk-set is 25
replacement data 0x55e13b3ba440
replacement data type 0x55e13af09ac0
blk-set is 25
replacement data 0x55e13b3ba450
replacement data type 0x55e13af09ac0
blk-set is 25
replacement data 0x55e13b3ba460
replacement data type 0x55e13af09ac0
blk-set is 25
replacement data 0x55e13b3ba470
replacement data type 0x55e13af09ac0
blk-set is 25
replacement data 0x55e13b3ba480
replacement data type 0x55e13af09ac0
blk-set is 25
replacement data 0x55e13b3ba490
replacement data type 0x55e13af09ac0
blk-set is 25
replacement data 0x55e13b3ba4a0
replacement data type 0x55e13af09ac0
blk-set is 25
replacement data 0x55e13b3ba4b0
replacement data type 0x55e13af09ac0
blk-set is 25
replacement data 0x55e13b3ba4c0
replacement data type 0x55e13af09ac0
blk-set is 25
replacement data 0x55e13b3ba4d0
replacement data type 0x55e13af09ac0
blk-set is 25
replacement data 0x55e13b3ba4e0
replacement data type 0x55e13af09ac0
blk-set is 25
replacement data 0x55e13b3ba4f0
replacement data type 0x55e13af09ac0
blk-set is 25
replacement data 0x55e13b3ba500
replacement data type 0x55e13af09ac0
blk-set is 25
replacement data 0x55e13b3ba510
replacement data type 0x55e13af09ac0
blk-set is 25
replacement data 0x55e13b3ba520
replacement data type 0x55e13af09ac0
blk-set is 26
replacement data 0x55e13b3ba530
replacement data type 0x55e13af09ac0
blk-set is 26
replacement data 0x55e13b3ba540
replacement data type 0x55e13af09ac0
blk-set is 26
replacement data 0x55e13b3ba550
replacement data type 0x55e13af09ac0
blk-set is 26
replacement data 0x55e13b3ba560
replacement data type 0x55e13af09ac0
blk-set is 26
replacement data 0x55e13b3ba570
replacement data type 0x55e13af09ac0
blk-set is 26
replacement data 0x55e13b3ba580
replacement data type 0x55e13af09ac0
blk-set is 26
replacement data 0x55e13b3ba590
replacement data type 0x55e13af09ac0
blk-set is 26
replacement data 0x55e13b3ba5a0
replacement data type 0x55e13af09ac0
blk-set is 26
replacement data 0x55e13b3ba5b0
replacement data type 0x55e13af09ac0
blk-set is 26
replacement data 0x55e13b3ba5c0
replacement data type 0x55e13af09ac0
blk-set is 26
replacement data 0x55e13b3ba5d0
replacement data type 0x55e13af09ac0
blk-set is 26
replacement data 0x55e13b3ba5e0
replacement data type 0x55e13af09ac0
blk-set is 26
replacement data 0x55e13b3ba5f0
replacement data type 0x55e13af09ac0
blk-set is 26
replacement data 0x55e13b3ba600
replacement data type 0x55e13af09ac0
blk-set is 26
replacement data 0x55e13b3ba610
replacement data type 0x55e13af09ac0
blk-set is 26
replacement data 0x55e13b3ba620
replacement data type 0x55e13af09ac0
blk-set is 27
replacement data 0x55e13b3ba630
replacement data type 0x55e13af09ac0
blk-set is 27
replacement data 0x55e13b3ba640
replacement data type 0x55e13af09ac0
blk-set is 27
replacement data 0x55e13b3ba650
replacement data type 0x55e13af09ac0
blk-set is 27
replacement data 0x55e13b3ba660
replacement data type 0x55e13af09ac0
blk-set is 27
replacement data 0x55e13b3ba670
replacement data type 0x55e13af09ac0
blk-set is 27
replacement data 0x55e13b3ba680
replacement data type 0x55e13af09ac0
blk-set is 27
replacement data 0x55e13b3ba690
replacement data type 0x55e13af09ac0
blk-set is 27
replacement data 0x55e13b3ba6a0
replacement data type 0x55e13af09ac0
blk-set is 27
replacement data 0x55e13b3ba6b0
replacement data type 0x55e13af09ac0
blk-set is 27
replacement data 0x55e13b3ba6c0
replacement data type 0x55e13af09ac0
blk-set is 27
replacement data 0x55e13b3ba6d0
replacement data type 0x55e13af09ac0
blk-set is 27
replacement data 0x55e13b3ba6e0
replacement data type 0x55e13af09ac0
blk-set is 27
replacement data 0x55e13b3ba6f0
replacement data type 0x55e13af09ac0
blk-set is 27
replacement data 0x55e13b3ba700
replacement data type 0x55e13af09ac0
blk-set is 27
replacement data 0x55e13b3ba710
replacement data type 0x55e13af09ac0
blk-set is 27
replacement data 0x55e13b3ba720
replacement data type 0x55e13af09ac0
blk-set is 28
replacement data 0x55e13b3ba730
replacement data type 0x55e13af09ac0
blk-set is 28
replacement data 0x55e13b3ba740
replacement data type 0x55e13af09ac0
blk-set is 28
replacement data 0x55e13b3ba750
replacement data type 0x55e13af09ac0
blk-set is 28
replacement data 0x55e13b3ba760
replacement data type 0x55e13af09ac0
blk-set is 28
replacement data 0x55e13b3ba770
replacement data type 0x55e13af09ac0
blk-set is 28
replacement data 0x55e13b3ba780
replacement data type 0x55e13af09ac0
blk-set is 28
replacement data 0x55e13b3ba790
replacement data type 0x55e13af09ac0
blk-set is 28
replacement data 0x55e13b3ba7a0
replacement data type 0x55e13af09ac0
blk-set is 28
replacement data 0x55e13b3ba7b0
replacement data type 0x55e13af09ac0
blk-set is 28
replacement data 0x55e13b3ba7c0
replacement data type 0x55e13af09ac0
blk-set is 28
replacement data 0x55e13b3ba7d0
replacement data type 0x55e13af09ac0
blk-set is 28
replacement data 0x55e13b3ba7e0
replacement data type 0x55e13af09ac0
blk-set is 28
replacement data 0x55e13b3ba7f0
replacement data type 0x55e13af09ac0
blk-set is 28
replacement data 0x55e13b3ba800
replacement data type 0x55e13af09ac0
blk-set is 28
replacement data 0x55e13b3ba810
replacement data type 0x55e13af09ac0
blk-set is 28
replacement data 0x55e13b3ba820
replacement data type 0x55e13af09ac0
blk-set is 29
replacement data 0x55e13b3ba830
replacement data type 0x55e13af09ac0
blk-set is 29
replacement data 0x55e13b3ba840
replacement data type 0x55e13af09ac0
blk-set is 29
replacement data 0x55e13b3ba850
replacement data type 0x55e13af09ac0
blk-set is 29
replacement data 0x55e13b3ba860
replacement data type 0x55e13af09ac0
blk-set is 29
replacement data 0x55e13b3ba870
replacement data type 0x55e13af09ac0
blk-set is 29
replacement data 0x55e13b3ba880
replacement data type 0x55e13af09ac0
blk-set is 29
replacement data 0x55e13b3ba890
replacement data type 0x55e13af09ac0
blk-set is 29
replacement data 0x55e13b3ba8a0
replacement data type 0x55e13af09ac0
blk-set is 29
replacement data 0x55e13b3ba8b0
replacement data type 0x55e13af09ac0
blk-set is 29
replacement data 0x55e13b3ba8c0
replacement data type 0x55e13af09ac0
blk-set is 29
replacement data 0x55e13b3ba8d0
replacement data type 0x55e13af09ac0
blk-set is 29
replacement data 0x55e13b3ba8e0
replacement data type 0x55e13af09ac0
blk-set is 29
replacement data 0x55e13b3ba8f0
replacement data type 0x55e13af09ac0
blk-set is 29
replacement data 0x55e13b3ba900
replacement data type 0x55e13af09ac0
blk-set is 29
replacement data 0x55e13b3ba910
replacement data type 0x55e13af09ac0
blk-set is 29
replacement data 0x55e13b3ba920
replacement data type 0x55e13af09ac0
blk-set is 30
replacement data 0x55e13b3ba930
replacement data type 0x55e13af09ac0
blk-set is 30
replacement data 0x55e13b3ba940
replacement data type 0x55e13af09ac0
blk-set is 30
replacement data 0x55e13b3ba950
replacement data type 0x55e13af09ac0
blk-set is 30
replacement data 0x55e13b3ba960
replacement data type 0x55e13af09ac0
blk-set is 30
replacement data 0x55e13b3ba970
replacement data type 0x55e13af09ac0
blk-set is 30
replacement data 0x55e13b3ba980
replacement data type 0x55e13af09ac0
blk-set is 30
replacement data 0x55e13b3ba990
replacement data type 0x55e13af09ac0
blk-set is 30
replacement data 0x55e13b3ba9a0
replacement data type 0x55e13af09ac0
blk-set is 30
replacement data 0x55e13b3ba9b0
replacement data type 0x55e13af09ac0
blk-set is 30
replacement data 0x55e13b3ba9c0
replacement data type 0x55e13af09ac0
blk-set is 30
replacement data 0x55e13b3ba9d0
replacement data type 0x55e13af09ac0
blk-set is 30
replacement data 0x55e13b3ba9e0
replacement data type 0x55e13af09ac0
blk-set is 30
replacement data 0x55e13b3ba9f0
replacement data type 0x55e13af09ac0
blk-set is 30
replacement data 0x55e13b3baa00
replacement data type 0x55e13af09ac0
blk-set is 30
replacement data 0x55e13b3baa10
replacement data type 0x55e13af09ac0
blk-set is 30
replacement data 0x55e13b3baa20
replacement data type 0x55e13af09ac0
blk-set is 31
replacement data 0x55e13b3baa30
replacement data type 0x55e13af09ac0
blk-set is 31
replacement data 0x55e13b3baa40
replacement data type 0x55e13af09ac0
blk-set is 31
replacement data 0x55e13b3baa50
replacement data type 0x55e13af09ac0
blk-set is 31
replacement data 0x55e13b3baa60
replacement data type 0x55e13af09ac0
blk-set is 31
replacement data 0x55e13b3baa70
replacement data type 0x55e13af09ac0
blk-set is 31
replacement data 0x55e13b3baa80
replacement data type 0x55e13af09ac0
blk-set is 31
replacement data 0x55e13b3baa90
replacement data type 0x55e13af09ac0
blk-set is 31
replacement data 0x55e13b3baaa0
replacement data type 0x55e13af09ac0
blk-set is 31
replacement data 0x55e13b3baab0
replacement data type 0x55e13af09ac0
blk-set is 31
replacement data 0x55e13b3baac0
replacement data type 0x55e13af09ac0
blk-set is 31
replacement data 0x55e13b3baad0
replacement data type 0x55e13af09ac0
blk-set is 31
replacement data 0x55e13b3baae0
replacement data type 0x55e13af09ac0
blk-set is 31
replacement data 0x55e13b3baaf0
replacement data type 0x55e13af09ac0
blk-set is 31
replacement data 0x55e13b3bab00
replacement data type 0x55e13af09ac0
blk-set is 31
replacement data 0x55e13b3bab10
replacement data type 0x55e13af09ac0
blk-set is 31
**** REAL SIMULATION ****
Usage: fft <waves> <length> -i
-i performs an inverse fft
make <waves> random sinusoids<length> is the number of samples
Exiting @ tick 81411500 because exiting with last active thread context
Simulated exit code not 0! Exit code is 255
