
---------- Begin Simulation Statistics ----------
sim_seconds                                  0.122292                       # Number of seconds simulated
sim_ticks                                122292020500                       # Number of ticks simulated
final_tick                               122292020500                       # Number of ticks from beginning of simulation (restored from checkpoints and never reset)
sim_freq                                 1000000000000                       # Frequency of simulated ticks
host_inst_rate                                 334535                       # Simulator instruction rate (inst/s)
host_op_rate                                   355647                       # Simulator op (including micro ops) rate (op/s)
host_tick_rate                              936570712                       # Simulator tick rate (ticks/s)
host_mem_usage                                 669852                       # Number of bytes of host memory used
host_seconds                                   130.57                       # Real time elapsed on the host
sim_insts                                    43681711                       # Number of instructions simulated
sim_ops                                      46438296                       # Number of ops (including micro ops) simulated
system.voltage_domain.voltage                       1                       # Voltage in Volts
system.clk_domain.clock                          1000                       # Clock period in ticks
system.mem_ctrls.pwrStateResidencyTicks::UNDEFINED 122292020500                       # Cumulative time (in ticks) in various power states
system.mem_ctrls.bytes_read::.cpu.inst         157952                       # Number of bytes read from this memory
system.mem_ctrls.bytes_read::.cpu.data        5706080                       # Number of bytes read from this memory
system.mem_ctrls.bytes_read::total            5864032                       # Number of bytes read from this memory
system.mem_ctrls.bytes_inst_read::.cpu.inst       157952                       # Number of instructions bytes read from this memory
system.mem_ctrls.bytes_inst_read::total        157952                       # Number of instructions bytes read from this memory
system.mem_ctrls.bytes_written::.writebacks       426048                       # Number of bytes written to this memory
system.mem_ctrls.bytes_written::total          426048                       # Number of bytes written to this memory
system.mem_ctrls.num_reads::.cpu.inst            4936                       # Number of read requests responded to by this memory
system.mem_ctrls.num_reads::.cpu.data          178315                       # Number of read requests responded to by this memory
system.mem_ctrls.num_reads::total              183251                       # Number of read requests responded to by this memory
system.mem_ctrls.num_writes::.writebacks        13314                       # Number of write requests responded to by this memory
system.mem_ctrls.num_writes::total              13314                       # Number of write requests responded to by this memory
system.mem_ctrls.bw_read::.cpu.inst           1291597                       # Total read bandwidth from this memory (bytes/s)
system.mem_ctrls.bw_read::.cpu.data          46659463                       # Total read bandwidth from this memory (bytes/s)
system.mem_ctrls.bw_read::total              47951060                       # Total read bandwidth from this memory (bytes/s)
system.mem_ctrls.bw_inst_read::.cpu.inst      1291597                       # Instruction read bandwidth from this memory (bytes/s)
system.mem_ctrls.bw_inst_read::total          1291597                       # Instruction read bandwidth from this memory (bytes/s)
system.mem_ctrls.bw_write::.writebacks        3483858                       # Write bandwidth from this memory (bytes/s)
system.mem_ctrls.bw_write::total              3483858                       # Write bandwidth from this memory (bytes/s)
system.mem_ctrls.bw_total::.writebacks        3483858                       # Total bandwidth to/from this memory (bytes/s)
system.mem_ctrls.bw_total::.cpu.inst          1291597                       # Total bandwidth to/from this memory (bytes/s)
system.mem_ctrls.bw_total::.cpu.data         46659463                       # Total bandwidth to/from this memory (bytes/s)
system.mem_ctrls.bw_total::total             51434918                       # Total bandwidth to/from this memory (bytes/s)
system.mem_ctrls.avgPriority_.writebacks::samples     10572.00                       # Average QoS priority value for accepted requests
system.mem_ctrls.avgPriority_.cpu.inst::samples      4936.00                       # Average QoS priority value for accepted requests
system.mem_ctrls.avgPriority_.cpu.data::samples    174600.00                       # Average QoS priority value for accepted requests
system.mem_ctrls.priorityMinLatency      0.000000018750                       # per QoS priority minimum request to response latency (s)
system.mem_ctrls.priorityMaxLatency      0.009944408500                       # per QoS priority maximum request to response latency (s)
system.mem_ctrls.numReadWriteTurnArounds          602                       # Number of turnarounds from READ to WRITE
system.mem_ctrls.numWriteReadTurnArounds          602                       # Number of turnarounds from WRITE to READ
system.mem_ctrls.numStayReadState              394841                       # Number of times bus staying in READ state
system.mem_ctrls.numStayWriteState              10108                       # Number of times bus staying in WRITE state
system.mem_ctrls.readReqs                      183251                       # Number of read requests accepted
system.mem_ctrls.writeReqs                      13314                       # Number of write requests accepted
system.mem_ctrls.readBursts                    183251                       # Number of DRAM read bursts, including those serviced by the write queue
system.mem_ctrls.writeBursts                    13314                       # Number of DRAM write bursts, including those merged in the write queue
system.mem_ctrls.bytesReadDRAM               11490304                       # Total number of bytes read from DRAM
system.mem_ctrls.bytesReadWrQ                  237760                       # Total number of bytes read from write queue
system.mem_ctrls.bytesWritten                  674816                       # Total number of bytes written to DRAM
system.mem_ctrls.bytesReadSys                 5864032                       # Total read bytes from the system interface side
system.mem_ctrls.bytesWrittenSys               426048                       # Total written bytes from the system interface side
system.mem_ctrls.servicedByWrQ                   3715                       # Number of DRAM read bursts serviced by the write queue
system.mem_ctrls.mergedWrBursts                  2742                       # Number of DRAM write bursts merged with an existing one
system.mem_ctrls.neitherReadNorWriteReqs            0                       # Number of requests that are neither read nor write
system.mem_ctrls.perBankRdBursts::0             32799                       # Per bank write bursts
system.mem_ctrls.perBankRdBursts::1             34065                       # Per bank write bursts
system.mem_ctrls.perBankRdBursts::2             12234                       # Per bank write bursts
system.mem_ctrls.perBankRdBursts::3               341                       # Per bank write bursts
system.mem_ctrls.perBankRdBursts::4               545                       # Per bank write bursts
system.mem_ctrls.perBankRdBursts::5              2222                       # Per bank write bursts
system.mem_ctrls.perBankRdBursts::6              4203                       # Per bank write bursts
system.mem_ctrls.perBankRdBursts::7             10508                       # Per bank write bursts
system.mem_ctrls.perBankRdBursts::8               816                       # Per bank write bursts
system.mem_ctrls.perBankRdBursts::9               682                       # Per bank write bursts
system.mem_ctrls.perBankRdBursts::10               24                       # Per bank write bursts
system.mem_ctrls.perBankRdBursts::11              480                       # Per bank write bursts
system.mem_ctrls.perBankRdBursts::12              482                       # Per bank write bursts
system.mem_ctrls.perBankRdBursts::13            15896                       # Per bank write bursts
system.mem_ctrls.perBankRdBursts::14            31327                       # Per bank write bursts
system.mem_ctrls.perBankRdBursts::15            32912                       # Per bank write bursts
system.mem_ctrls.perBankWrBursts::0               217                       # Per bank write bursts
system.mem_ctrls.perBankWrBursts::1               197                       # Per bank write bursts
system.mem_ctrls.perBankWrBursts::2               354                       # Per bank write bursts
system.mem_ctrls.perBankWrBursts::3                 9                       # Per bank write bursts
system.mem_ctrls.perBankWrBursts::4                12                       # Per bank write bursts
system.mem_ctrls.perBankWrBursts::5               151                       # Per bank write bursts
system.mem_ctrls.perBankWrBursts::6              2176                       # Per bank write bursts
system.mem_ctrls.perBankWrBursts::7              6705                       # Per bank write bursts
system.mem_ctrls.perBankWrBursts::8                 0                       # Per bank write bursts
system.mem_ctrls.perBankWrBursts::9                 0                       # Per bank write bursts
system.mem_ctrls.perBankWrBursts::10                0                       # Per bank write bursts
system.mem_ctrls.perBankWrBursts::11                0                       # Per bank write bursts
system.mem_ctrls.perBankWrBursts::12              105                       # Per bank write bursts
system.mem_ctrls.perBankWrBursts::13              211                       # Per bank write bursts
system.mem_ctrls.perBankWrBursts::14              207                       # Per bank write bursts
system.mem_ctrls.perBankWrBursts::15              200                       # Per bank write bursts
system.mem_ctrls.numRdRetry                         0                       # Number of times read queue was full causing retry
system.mem_ctrls.numWrRetry                         0                       # Number of times write queue was full causing retry
system.mem_ctrls.totGap                  122291942500                       # Total gap between requests
system.mem_ctrls.readPktSize::0                     0                       # Read request sizes (log2)
system.mem_ctrls.readPktSize::1                     0                       # Read request sizes (log2)
system.mem_ctrls.readPktSize::2                     0                       # Read request sizes (log2)
system.mem_ctrls.readPktSize::3                     0                       # Read request sizes (log2)
system.mem_ctrls.readPktSize::4                     0                       # Read request sizes (log2)
system.mem_ctrls.readPktSize::5                183251                       # Read request sizes (log2)
system.mem_ctrls.readPktSize::6                     0                       # Read request sizes (log2)
system.mem_ctrls.writePktSize::0                    0                       # Write request sizes (log2)
system.mem_ctrls.writePktSize::1                    0                       # Write request sizes (log2)
system.mem_ctrls.writePktSize::2                    0                       # Write request sizes (log2)
system.mem_ctrls.writePktSize::3                    0                       # Write request sizes (log2)
system.mem_ctrls.writePktSize::4                    0                       # Write request sizes (log2)
system.mem_ctrls.writePktSize::5                13314                       # Write request sizes (log2)
system.mem_ctrls.writePktSize::6                    0                       # Write request sizes (log2)
system.mem_ctrls.rdQLenPdf::0                  179530                       # What read queue length does an incoming req see
system.mem_ctrls.rdQLenPdf::1                       6                       # What read queue length does an incoming req see
system.mem_ctrls.rdQLenPdf::2                       0                       # What read queue length does an incoming req see
system.mem_ctrls.rdQLenPdf::3                       0                       # What read queue length does an incoming req see
system.mem_ctrls.rdQLenPdf::4                       0                       # What read queue length does an incoming req see
system.mem_ctrls.rdQLenPdf::5                       0                       # What read queue length does an incoming req see
system.mem_ctrls.rdQLenPdf::6                       0                       # What read queue length does an incoming req see
system.mem_ctrls.rdQLenPdf::7                       0                       # What read queue length does an incoming req see
system.mem_ctrls.rdQLenPdf::8                       0                       # What read queue length does an incoming req see
system.mem_ctrls.rdQLenPdf::9                       0                       # What read queue length does an incoming req see
system.mem_ctrls.rdQLenPdf::10                      0                       # What read queue length does an incoming req see
system.mem_ctrls.rdQLenPdf::11                      0                       # What read queue length does an incoming req see
system.mem_ctrls.rdQLenPdf::12                      0                       # What read queue length does an incoming req see
system.mem_ctrls.rdQLenPdf::13                      0                       # What read queue length does an incoming req see
system.mem_ctrls.rdQLenPdf::14                      0                       # What read queue length does an incoming req see
system.mem_ctrls.rdQLenPdf::15                      0                       # What read queue length does an incoming req see
system.mem_ctrls.rdQLenPdf::16                      0                       # What read queue length does an incoming req see
system.mem_ctrls.rdQLenPdf::17                      0                       # What read queue length does an incoming req see
system.mem_ctrls.rdQLenPdf::18                      0                       # What read queue length does an incoming req see
system.mem_ctrls.rdQLenPdf::19                      0                       # What read queue length does an incoming req see
system.mem_ctrls.rdQLenPdf::20                      0                       # What read queue length does an incoming req see
system.mem_ctrls.rdQLenPdf::21                      0                       # What read queue length does an incoming req see
system.mem_ctrls.rdQLenPdf::22                      0                       # What read queue length does an incoming req see
system.mem_ctrls.rdQLenPdf::23                      0                       # What read queue length does an incoming req see
system.mem_ctrls.rdQLenPdf::24                      0                       # What read queue length does an incoming req see
system.mem_ctrls.rdQLenPdf::25                      0                       # What read queue length does an incoming req see
system.mem_ctrls.rdQLenPdf::26                      0                       # What read queue length does an incoming req see
system.mem_ctrls.rdQLenPdf::27                      0                       # What read queue length does an incoming req see
system.mem_ctrls.rdQLenPdf::28                      0                       # What read queue length does an incoming req see
system.mem_ctrls.rdQLenPdf::29                      0                       # What read queue length does an incoming req see
system.mem_ctrls.rdQLenPdf::30                      0                       # What read queue length does an incoming req see
system.mem_ctrls.rdQLenPdf::31                      0                       # What read queue length does an incoming req see
system.mem_ctrls.wrQLenPdf::0                       1                       # What write queue length does an incoming req see
system.mem_ctrls.wrQLenPdf::1                       1                       # What write queue length does an incoming req see
system.mem_ctrls.wrQLenPdf::2                       1                       # What write queue length does an incoming req see
system.mem_ctrls.wrQLenPdf::3                       1                       # What write queue length does an incoming req see
system.mem_ctrls.wrQLenPdf::4                       1                       # What write queue length does an incoming req see
system.mem_ctrls.wrQLenPdf::5                       1                       # What write queue length does an incoming req see
system.mem_ctrls.wrQLenPdf::6                       1                       # What write queue length does an incoming req see
system.mem_ctrls.wrQLenPdf::7                       1                       # What write queue length does an incoming req see
system.mem_ctrls.wrQLenPdf::8                       1                       # What write queue length does an incoming req see
system.mem_ctrls.wrQLenPdf::9                       1                       # What write queue length does an incoming req see
system.mem_ctrls.wrQLenPdf::10                      1                       # What write queue length does an incoming req see
system.mem_ctrls.wrQLenPdf::11                      1                       # What write queue length does an incoming req see
system.mem_ctrls.wrQLenPdf::12                      1                       # What write queue length does an incoming req see
system.mem_ctrls.wrQLenPdf::13                      1                       # What write queue length does an incoming req see
system.mem_ctrls.wrQLenPdf::14                      1                       # What write queue length does an incoming req see
system.mem_ctrls.wrQLenPdf::15                    455                       # What write queue length does an incoming req see
system.mem_ctrls.wrQLenPdf::16                    456                       # What write queue length does an incoming req see
system.mem_ctrls.wrQLenPdf::17                    600                       # What write queue length does an incoming req see
system.mem_ctrls.wrQLenPdf::18                    603                       # What write queue length does an incoming req see
system.mem_ctrls.wrQLenPdf::19                    603                       # What write queue length does an incoming req see
system.mem_ctrls.wrQLenPdf::20                    603                       # What write queue length does an incoming req see
system.mem_ctrls.wrQLenPdf::21                    604                       # What write queue length does an incoming req see
system.mem_ctrls.wrQLenPdf::22                    604                       # What write queue length does an incoming req see
system.mem_ctrls.wrQLenPdf::23                    604                       # What write queue length does an incoming req see
system.mem_ctrls.wrQLenPdf::24                    603                       # What write queue length does an incoming req see
system.mem_ctrls.wrQLenPdf::25                    603                       # What write queue length does an incoming req see
system.mem_ctrls.wrQLenPdf::26                    603                       # What write queue length does an incoming req see
system.mem_ctrls.wrQLenPdf::27                    603                       # What write queue length does an incoming req see
system.mem_ctrls.wrQLenPdf::28                    603                       # What write queue length does an incoming req see
system.mem_ctrls.wrQLenPdf::29                    603                       # What write queue length does an incoming req see
system.mem_ctrls.wrQLenPdf::30                    602                       # What write queue length does an incoming req see
system.mem_ctrls.wrQLenPdf::31                    602                       # What write queue length does an incoming req see
system.mem_ctrls.wrQLenPdf::32                    603                       # What write queue length does an incoming req see
system.mem_ctrls.wrQLenPdf::33                      0                       # What write queue length does an incoming req see
system.mem_ctrls.wrQLenPdf::34                      0                       # What write queue length does an incoming req see
system.mem_ctrls.wrQLenPdf::35                      0                       # What write queue length does an incoming req see
system.mem_ctrls.wrQLenPdf::36                      0                       # What write queue length does an incoming req see
system.mem_ctrls.wrQLenPdf::37                      0                       # What write queue length does an incoming req see
system.mem_ctrls.wrQLenPdf::38                      0                       # What write queue length does an incoming req see
system.mem_ctrls.wrQLenPdf::39                      0                       # What write queue length does an incoming req see
system.mem_ctrls.wrQLenPdf::40                      0                       # What write queue length does an incoming req see
system.mem_ctrls.wrQLenPdf::41                      0                       # What write queue length does an incoming req see
system.mem_ctrls.wrQLenPdf::42                      0                       # What write queue length does an incoming req see
system.mem_ctrls.wrQLenPdf::43                      0                       # What write queue length does an incoming req see
system.mem_ctrls.wrQLenPdf::44                      0                       # What write queue length does an incoming req see
system.mem_ctrls.wrQLenPdf::45                      0                       # What write queue length does an incoming req see
system.mem_ctrls.wrQLenPdf::46                      0                       # What write queue length does an incoming req see
system.mem_ctrls.wrQLenPdf::47                      0                       # What write queue length does an incoming req see
system.mem_ctrls.wrQLenPdf::48                      0                       # What write queue length does an incoming req see
system.mem_ctrls.wrQLenPdf::49                      0                       # What write queue length does an incoming req see
system.mem_ctrls.wrQLenPdf::50                      0                       # What write queue length does an incoming req see
system.mem_ctrls.wrQLenPdf::51                      0                       # What write queue length does an incoming req see
system.mem_ctrls.wrQLenPdf::52                      0                       # What write queue length does an incoming req see
system.mem_ctrls.wrQLenPdf::53                      0                       # What write queue length does an incoming req see
system.mem_ctrls.wrQLenPdf::54                      0                       # What write queue length does an incoming req see
system.mem_ctrls.wrQLenPdf::55                      0                       # What write queue length does an incoming req see
system.mem_ctrls.wrQLenPdf::56                      0                       # What write queue length does an incoming req see
system.mem_ctrls.wrQLenPdf::57                      0                       # What write queue length does an incoming req see
system.mem_ctrls.wrQLenPdf::58                      0                       # What write queue length does an incoming req see
system.mem_ctrls.wrQLenPdf::59                      0                       # What write queue length does an incoming req see
system.mem_ctrls.wrQLenPdf::60                      0                       # What write queue length does an incoming req see
system.mem_ctrls.wrQLenPdf::61                      0                       # What write queue length does an incoming req see
system.mem_ctrls.wrQLenPdf::62                      0                       # What write queue length does an incoming req see
system.mem_ctrls.wrQLenPdf::63                      0                       # What write queue length does an incoming req see
system.mem_ctrls.bytesPerActivate::samples        29105                       # Bytes accessed per row activation
system.mem_ctrls.bytesPerActivate::mean    417.916372                       # Bytes accessed per row activation
system.mem_ctrls.bytesPerActivate::gmean   257.503589                       # Bytes accessed per row activation
system.mem_ctrls.bytesPerActivate::stdev   350.275380                       # Bytes accessed per row activation
system.mem_ctrls.bytesPerActivate::0-127         8249     28.34%     28.34% # Bytes accessed per row activation
system.mem_ctrls.bytesPerActivate::128-255         4837     16.62%     44.96% # Bytes accessed per row activation
system.mem_ctrls.bytesPerActivate::256-383         2526      8.68%     53.64% # Bytes accessed per row activation
system.mem_ctrls.bytesPerActivate::384-511         1908      6.56%     60.20% # Bytes accessed per row activation
system.mem_ctrls.bytesPerActivate::512-639         2049      7.04%     67.24% # Bytes accessed per row activation
system.mem_ctrls.bytesPerActivate::640-767         2061      7.08%     74.32% # Bytes accessed per row activation
system.mem_ctrls.bytesPerActivate::768-895         2830      9.72%     84.04% # Bytes accessed per row activation
system.mem_ctrls.bytesPerActivate::896-1023         1279      4.39%     88.43% # Bytes accessed per row activation
system.mem_ctrls.bytesPerActivate::1024-1151         3366     11.57%    100.00% # Bytes accessed per row activation
system.mem_ctrls.bytesPerActivate::total        29105                       # Bytes accessed per row activation
system.mem_ctrls.rdPerTurnAround::samples          602                       # Reads before turning the bus around for writes
system.mem_ctrls.rdPerTurnAround::mean     297.450166                       # Reads before turning the bus around for writes
system.mem_ctrls.rdPerTurnAround::gmean    161.056442                       # Reads before turning the bus around for writes
system.mem_ctrls.rdPerTurnAround::stdev    294.873116                       # Reads before turning the bus around for writes
system.mem_ctrls.rdPerTurnAround::0-127           241     40.03%     40.03% # Reads before turning the bus around for writes
system.mem_ctrls.rdPerTurnAround::128-255           77     12.79%     52.82% # Reads before turning the bus around for writes
system.mem_ctrls.rdPerTurnAround::256-383           99     16.45%     69.27% # Reads before turning the bus around for writes
system.mem_ctrls.rdPerTurnAround::384-511           63     10.47%     79.73% # Reads before turning the bus around for writes
system.mem_ctrls.rdPerTurnAround::512-639           44      7.31%     87.04% # Reads before turning the bus around for writes
system.mem_ctrls.rdPerTurnAround::640-767           30      4.98%     92.03% # Reads before turning the bus around for writes
system.mem_ctrls.rdPerTurnAround::768-895           22      3.65%     95.68% # Reads before turning the bus around for writes
system.mem_ctrls.rdPerTurnAround::896-1023            9      1.50%     97.18% # Reads before turning the bus around for writes
system.mem_ctrls.rdPerTurnAround::1024-1151            7      1.16%     98.34% # Reads before turning the bus around for writes
system.mem_ctrls.rdPerTurnAround::1152-1279            6      1.00%     99.34% # Reads before turning the bus around for writes
system.mem_ctrls.rdPerTurnAround::1280-1407            3      0.50%     99.83% # Reads before turning the bus around for writes
system.mem_ctrls.rdPerTurnAround::2176-2303            1      0.17%    100.00% # Reads before turning the bus around for writes
system.mem_ctrls.rdPerTurnAround::total           602                       # Reads before turning the bus around for writes
system.mem_ctrls.wrPerTurnAround::samples          602                       # Writes before turning the bus around for reads
system.mem_ctrls.wrPerTurnAround::mean      17.514950                       # Writes before turning the bus around for reads
system.mem_ctrls.wrPerTurnAround::gmean     17.492728                       # Writes before turning the bus around for reads
system.mem_ctrls.wrPerTurnAround::stdev      0.865656                       # Writes before turning the bus around for reads
system.mem_ctrls.wrPerTurnAround::16              147     24.42%     24.42% # Writes before turning the bus around for reads
system.mem_ctrls.wrPerTurnAround::17                1      0.17%     24.58% # Writes before turning the bus around for reads
system.mem_ctrls.wrPerTurnAround::18              451     74.92%     99.50% # Writes before turning the bus around for reads
system.mem_ctrls.wrPerTurnAround::19                3      0.50%    100.00% # Writes before turning the bus around for reads
system.mem_ctrls.wrPerTurnAround::total           602                       # Writes before turning the bus around for reads
system.mem_ctrls.masterReadBytes::.cpu.inst       157952                       # Per-master bytes read from memory
system.mem_ctrls.masterReadBytes::.cpu.data      5587200                       # Per-master bytes read from memory
system.mem_ctrls.masterWriteBytes::.writebacks       337408                       # Per-master bytes write to memory
system.mem_ctrls.masterReadRate::.cpu.inst 1291596.944381174864                       # Per-master bytes read from memory rate (Bytes/sec)
system.mem_ctrls.masterReadRate::.cpu.data 45687363.551246583462                       # Per-master bytes read from memory rate (Bytes/sec)
system.mem_ctrls.masterWriteRate::.writebacks 2759035.287997388281                       # Per-master bytes write to memory rate (Bytes/sec)
system.mem_ctrls.masterReadAccesses::.cpu.inst         4936                       # Per-master read serviced memory accesses
system.mem_ctrls.masterReadAccesses::.cpu.data       178315                       # Per-master read serviced memory accesses
system.mem_ctrls.masterWriteAccesses::.writebacks        13314                       # Per-master write serviced memory accesses
system.mem_ctrls.masterReadTotalLat::.cpu.inst    177838250                       # Per-master read total memory access latency
system.mem_ctrls.masterReadTotalLat::.cpu.data   7851161500                       # Per-master read total memory access latency
system.mem_ctrls.masterWriteTotalLat::.writebacks 2905689920000                       # Per-master write total memory access latency
system.mem_ctrls.masterReadAvgLat::.cpu.inst     36028.82                       # Per-master read average memory access latency
system.mem_ctrls.masterReadAvgLat::.cpu.data     44029.73                       # Per-master read average memory access latency
system.mem_ctrls.masterWriteAvgLat::.writebacks 218243196.64                       # Per-master write average memory access latency
system.mem_ctrls.totQLat                   4662699750                       # Total ticks spent queuing
system.mem_ctrls.totMemAccLat              8028999750                       # Total ticks spent from burst creation until serviced by the DRAM
system.mem_ctrls.totBusLat                  897680000                       # Total ticks spent in databus transfers
system.mem_ctrls.avgQLat                     25970.83                       # Average queueing delay per DRAM burst
system.mem_ctrls.avgBusLat                    5000.00                       # Average bus latency per DRAM burst
system.mem_ctrls.avgMemAccLat                44720.83                       # Average memory access latency per DRAM burst
system.mem_ctrls.avgRdBW                        93.96                       # Average DRAM read bandwidth in MiByte/s
system.mem_ctrls.avgWrBW                         5.52                       # Average achieved write bandwidth in MiByte/s
system.mem_ctrls.avgRdBWSys                     47.95                       # Average system read bandwidth in MiByte/s
system.mem_ctrls.avgWrBWSys                      3.48                       # Average system write bandwidth in MiByte/s
system.mem_ctrls.peakBW                      12800.00                       # Theoretical peak bandwidth in MiByte/s
system.mem_ctrls.busUtil                         0.78                       # Data bus utilization in percentage
system.mem_ctrls.busUtilRead                     0.73                       # Data bus utilization in percentage for reads
system.mem_ctrls.busUtilWrite                    0.04                       # Data bus utilization in percentage for writes
system.mem_ctrls.avgRdQLen                       1.00                       # Average read queue length when enqueuing
system.mem_ctrls.avgWrQLen                      24.69                       # Average write queue length when enqueuing
system.mem_ctrls.readRowHits                   151481                       # Number of row buffer hits during reads
system.mem_ctrls.writeRowHits                    9488                       # Number of row buffer hits during writes
system.mem_ctrls.readRowHitRate                 84.37                       # Row buffer hit rate for reads
system.mem_ctrls.writeRowHitRate                89.75                       # Row buffer hit rate for writes
system.mem_ctrls.avgGap                     622145.05                       # Average gap between requests
system.mem_ctrls.pageHitRate                    84.67                       # Row buffer hit rate, read and write combined
system.mem_ctrls_0.actEnergy                125749680                       # Energy for activate commands per rank (pJ)
system.mem_ctrls_0.preEnergy                 66826155                       # Energy for precharge commands per rank (pJ)
system.mem_ctrls_0.readEnergy               691987380                       # Energy for read commands per rank (pJ)
system.mem_ctrls_0.writeEnergy               51265620                       # Energy for write commands per rank (pJ)
system.mem_ctrls_0.refreshEnergy         7602482160.000001                       # Energy for refresh commands per rank (pJ)
system.mem_ctrls_0.actBackEnergy           3083629320                       # Energy for active background per rank (pJ)
system.mem_ctrls_0.preBackEnergy            399751680                       # Energy for precharge background per rank (pJ)
system.mem_ctrls_0.actPowerDownEnergy     26893212180                       # Energy for active power-down per rank (pJ)
system.mem_ctrls_0.prePowerDownEnergy     11592168000                       # Energy for precharge power-down per rank (pJ)
system.mem_ctrls_0.selfRefreshEnergy       7415927820                       # Energy for self refresh per rank (pJ)
system.mem_ctrls_0.totalEnergy            57928968435                       # Total energy per rank (pJ)
system.mem_ctrls_0.averagePower            473.693772                       # Core power per rank (mW)
system.mem_ctrls_0.totalIdleTime         114474833750                       # Total Idle time Per DRAM Rank
system.mem_ctrls_0.memoryStateTime::IDLE    733055500                       # Time in different power states
system.mem_ctrls_0.memoryStateTime::REF    3215940000                       # Time in different power states
system.mem_ctrls_0.memoryStateTime::SREF  25311102750                       # Time in different power states
system.mem_ctrls_0.memoryStateTime::PRE_PDN  30188150250                       # Time in different power states
system.mem_ctrls_0.memoryStateTime::ACT    3867421500                       # Time in different power states
system.mem_ctrls_0.memoryStateTime::ACT_PDN  58976350500                       # Time in different power states
system.mem_ctrls_1.actEnergy                 82102860                       # Energy for activate commands per rank (pJ)
system.mem_ctrls_1.preEnergy                 43627320                       # Energy for precharge commands per rank (pJ)
system.mem_ctrls_1.readEnergy               589899660                       # Energy for read commands per rank (pJ)
system.mem_ctrls_1.writeEnergy                3774060                       # Energy for write commands per rank (pJ)
system.mem_ctrls_1.refreshEnergy         6360909360.000001                       # Energy for refresh commands per rank (pJ)
system.mem_ctrls_1.actBackEnergy           2304297390                       # Energy for active background per rank (pJ)
system.mem_ctrls_1.preBackEnergy            358201920                       # Energy for precharge background per rank (pJ)
system.mem_ctrls_1.actPowerDownEnergy     22184309940                       # Energy for active power-down per rank (pJ)
system.mem_ctrls_1.prePowerDownEnergy     10199189760                       # Energy for precharge power-down per rank (pJ)
system.mem_ctrls_1.selfRefreshEnergy      11103857880                       # Energy for self refresh per rank (pJ)
system.mem_ctrls_1.totalEnergy            53235108960                       # Total energy per rank (pJ)
system.mem_ctrls_1.averagePower            435.311386                       # Core power per rank (mW)
system.mem_ctrls_1.totalIdleTime         116294697000                       # Total Idle time Per DRAM Rank
system.mem_ctrls_1.memoryStateTime::IDLE    674961000                       # Time in different power states
system.mem_ctrls_1.memoryStateTime::REF    2690740000                       # Time in different power states
system.mem_ctrls_1.memoryStateTime::SREF  41084739750                       # Time in different power states
system.mem_ctrls_1.memoryStateTime::PRE_PDN  26560348000                       # Time in different power states
system.mem_ctrls_1.memoryStateTime::ACT    2631580750                       # Time in different power states
system.mem_ctrls_1.memoryStateTime::ACT_PDN  48649651000                       # Time in different power states
system.pwrStateResidencyTicks::UNDEFINED 122292020500                       # Cumulative time (in ticks) in various power states
system.cpu_voltage_domain.voltage                   1                       # Voltage in Volts
system.cpu_clk_domain.clock                       500                       # Clock period in ticks
system.cpu.dstage2_mmu.stage2_tlb.walker.pwrStateResidencyTicks::UNDEFINED 122292020500                       # Cumulative time (in ticks) in various power states
system.cpu.dstage2_mmu.stage2_tlb.walker.walks            0                       # Table walker walks requested
system.cpu.dstage2_mmu.stage2_tlb.walker.walkRequestOrigin_Requested::Data            0                       # Table walker requests started/completed, data/inst
system.cpu.dstage2_mmu.stage2_tlb.walker.walkRequestOrigin_Requested::Inst            0                       # Table walker requests started/completed, data/inst
system.cpu.dstage2_mmu.stage2_tlb.walker.walkRequestOrigin_Requested::total            0                       # Table walker requests started/completed, data/inst
system.cpu.dstage2_mmu.stage2_tlb.walker.walkRequestOrigin_Completed::Data            0                       # Table walker requests started/completed, data/inst
system.cpu.dstage2_mmu.stage2_tlb.walker.walkRequestOrigin_Completed::Inst            0                       # Table walker requests started/completed, data/inst
system.cpu.dstage2_mmu.stage2_tlb.walker.walkRequestOrigin_Completed::total            0                       # Table walker requests started/completed, data/inst
system.cpu.dstage2_mmu.stage2_tlb.walker.walkRequestOrigin::total            0                       # Table walker requests started/completed, data/inst
system.cpu.dstage2_mmu.stage2_tlb.inst_hits            0                       # ITB inst hits
system.cpu.dstage2_mmu.stage2_tlb.inst_misses            0                       # ITB inst misses
system.cpu.dstage2_mmu.stage2_tlb.read_hits            0                       # DTB read hits
system.cpu.dstage2_mmu.stage2_tlb.read_misses            0                       # DTB read misses
system.cpu.dstage2_mmu.stage2_tlb.write_hits            0                       # DTB write hits
system.cpu.dstage2_mmu.stage2_tlb.write_misses            0                       # DTB write misses
system.cpu.dstage2_mmu.stage2_tlb.flush_tlb            0                       # Number of times complete TLB was flushed
system.cpu.dstage2_mmu.stage2_tlb.flush_tlb_mva            0                       # Number of times TLB was flushed by MVA
system.cpu.dstage2_mmu.stage2_tlb.flush_tlb_mva_asid            0                       # Number of times TLB was flushed by MVA & ASID
system.cpu.dstage2_mmu.stage2_tlb.flush_tlb_asid            0                       # Number of times TLB was flushed by ASID
system.cpu.dstage2_mmu.stage2_tlb.flush_entries            0                       # Number of entries that have been flushed from TLB
system.cpu.dstage2_mmu.stage2_tlb.align_faults            0                       # Number of TLB faults due to alignment restrictions
system.cpu.dstage2_mmu.stage2_tlb.prefetch_faults            0                       # Number of TLB faults due to prefetch
system.cpu.dstage2_mmu.stage2_tlb.domain_faults            0                       # Number of TLB faults due to domain restrictions
system.cpu.dstage2_mmu.stage2_tlb.perms_faults            0                       # Number of TLB faults due to permissions restrictions
system.cpu.dstage2_mmu.stage2_tlb.read_accesses            0                       # DTB read accesses
system.cpu.dstage2_mmu.stage2_tlb.write_accesses            0                       # DTB write accesses
system.cpu.dstage2_mmu.stage2_tlb.inst_accesses            0                       # ITB inst accesses
system.cpu.dstage2_mmu.stage2_tlb.hits              0                       # DTB hits
system.cpu.dstage2_mmu.stage2_tlb.misses            0                       # DTB misses
system.cpu.dstage2_mmu.stage2_tlb.accesses            0                       # DTB accesses
system.cpu.dtb.walker.pwrStateResidencyTicks::UNDEFINED 122292020500                       # Cumulative time (in ticks) in various power states
system.cpu.dtb.walker.walks                         0                       # Table walker walks requested
system.cpu.dtb.walker.walkRequestOrigin_Requested::Data            0                       # Table walker requests started/completed, data/inst
system.cpu.dtb.walker.walkRequestOrigin_Requested::Inst            0                       # Table walker requests started/completed, data/inst
system.cpu.dtb.walker.walkRequestOrigin_Requested::total            0                       # Table walker requests started/completed, data/inst
system.cpu.dtb.walker.walkRequestOrigin_Completed::Data            0                       # Table walker requests started/completed, data/inst
system.cpu.dtb.walker.walkRequestOrigin_Completed::Inst            0                       # Table walker requests started/completed, data/inst
system.cpu.dtb.walker.walkRequestOrigin_Completed::total            0                       # Table walker requests started/completed, data/inst
system.cpu.dtb.walker.walkRequestOrigin::total            0                       # Table walker requests started/completed, data/inst
system.cpu.dtb.inst_hits                            0                       # ITB inst hits
system.cpu.dtb.inst_misses                          0                       # ITB inst misses
system.cpu.dtb.read_hits                            0                       # DTB read hits
system.cpu.dtb.read_misses                          0                       # DTB read misses
system.cpu.dtb.write_hits                           0                       # DTB write hits
system.cpu.dtb.write_misses                         0                       # DTB write misses
system.cpu.dtb.flush_tlb                            0                       # Number of times complete TLB was flushed
system.cpu.dtb.flush_tlb_mva                        0                       # Number of times TLB was flushed by MVA
system.cpu.dtb.flush_tlb_mva_asid                   0                       # Number of times TLB was flushed by MVA & ASID
system.cpu.dtb.flush_tlb_asid                       0                       # Number of times TLB was flushed by ASID
system.cpu.dtb.flush_entries                        0                       # Number of entries that have been flushed from TLB
system.cpu.dtb.align_faults                         0                       # Number of TLB faults due to alignment restrictions
system.cpu.dtb.prefetch_faults                      0                       # Number of TLB faults due to prefetch
system.cpu.dtb.domain_faults                        0                       # Number of TLB faults due to domain restrictions
system.cpu.dtb.perms_faults                         0                       # Number of TLB faults due to permissions restrictions
system.cpu.dtb.read_accesses                        0                       # DTB read accesses
system.cpu.dtb.write_accesses                       0                       # DTB write accesses
system.cpu.dtb.inst_accesses                        0                       # ITB inst accesses
system.cpu.dtb.hits                                 0                       # DTB hits
system.cpu.dtb.misses                               0                       # DTB misses
system.cpu.dtb.accesses                             0                       # DTB accesses
system.cpu.istage2_mmu.stage2_tlb.walker.pwrStateResidencyTicks::UNDEFINED 122292020500                       # Cumulative time (in ticks) in various power states
system.cpu.istage2_mmu.stage2_tlb.walker.walks            0                       # Table walker walks requested
system.cpu.istage2_mmu.stage2_tlb.walker.walkRequestOrigin_Requested::Data            0                       # Table walker requests started/completed, data/inst
system.cpu.istage2_mmu.stage2_tlb.walker.walkRequestOrigin_Requested::Inst            0                       # Table walker requests started/completed, data/inst
system.cpu.istage2_mmu.stage2_tlb.walker.walkRequestOrigin_Requested::total            0                       # Table walker requests started/completed, data/inst
system.cpu.istage2_mmu.stage2_tlb.walker.walkRequestOrigin_Completed::Data            0                       # Table walker requests started/completed, data/inst
system.cpu.istage2_mmu.stage2_tlb.walker.walkRequestOrigin_Completed::Inst            0                       # Table walker requests started/completed, data/inst
system.cpu.istage2_mmu.stage2_tlb.walker.walkRequestOrigin_Completed::total            0                       # Table walker requests started/completed, data/inst
system.cpu.istage2_mmu.stage2_tlb.walker.walkRequestOrigin::total            0                       # Table walker requests started/completed, data/inst
system.cpu.istage2_mmu.stage2_tlb.inst_hits            0                       # ITB inst hits
system.cpu.istage2_mmu.stage2_tlb.inst_misses            0                       # ITB inst misses
system.cpu.istage2_mmu.stage2_tlb.read_hits            0                       # DTB read hits
system.cpu.istage2_mmu.stage2_tlb.read_misses            0                       # DTB read misses
system.cpu.istage2_mmu.stage2_tlb.write_hits            0                       # DTB write hits
system.cpu.istage2_mmu.stage2_tlb.write_misses            0                       # DTB write misses
system.cpu.istage2_mmu.stage2_tlb.flush_tlb            0                       # Number of times complete TLB was flushed
system.cpu.istage2_mmu.stage2_tlb.flush_tlb_mva            0                       # Number of times TLB was flushed by MVA
system.cpu.istage2_mmu.stage2_tlb.flush_tlb_mva_asid            0                       # Number of times TLB was flushed by MVA & ASID
system.cpu.istage2_mmu.stage2_tlb.flush_tlb_asid            0                       # Number of times TLB was flushed by ASID
system.cpu.istage2_mmu.stage2_tlb.flush_entries            0                       # Number of entries that have been flushed from TLB
system.cpu.istage2_mmu.stage2_tlb.align_faults            0                       # Number of TLB faults due to alignment restrictions
system.cpu.istage2_mmu.stage2_tlb.prefetch_faults            0                       # Number of TLB faults due to prefetch
system.cpu.istage2_mmu.stage2_tlb.domain_faults            0                       # Number of TLB faults due to domain restrictions
system.cpu.istage2_mmu.stage2_tlb.perms_faults            0                       # Number of TLB faults due to permissions restrictions
system.cpu.istage2_mmu.stage2_tlb.read_accesses            0                       # DTB read accesses
system.cpu.istage2_mmu.stage2_tlb.write_accesses            0                       # DTB write accesses
system.cpu.istage2_mmu.stage2_tlb.inst_accesses            0                       # ITB inst accesses
system.cpu.istage2_mmu.stage2_tlb.hits              0                       # DTB hits
system.cpu.istage2_mmu.stage2_tlb.misses            0                       # DTB misses
system.cpu.istage2_mmu.stage2_tlb.accesses            0                       # DTB accesses
system.cpu.itb.walker.pwrStateResidencyTicks::UNDEFINED 122292020500                       # Cumulative time (in ticks) in various power states
system.cpu.itb.walker.walks                         0                       # Table walker walks requested
system.cpu.itb.walker.walkRequestOrigin_Requested::Data            0                       # Table walker requests started/completed, data/inst
system.cpu.itb.walker.walkRequestOrigin_Requested::Inst            0                       # Table walker requests started/completed, data/inst
system.cpu.itb.walker.walkRequestOrigin_Requested::total            0                       # Table walker requests started/completed, data/inst
system.cpu.itb.walker.walkRequestOrigin_Completed::Data            0                       # Table walker requests started/completed, data/inst
system.cpu.itb.walker.walkRequestOrigin_Completed::Inst            0                       # Table walker requests started/completed, data/inst
system.cpu.itb.walker.walkRequestOrigin_Completed::total            0                       # Table walker requests started/completed, data/inst
system.cpu.itb.walker.walkRequestOrigin::total            0                       # Table walker requests started/completed, data/inst
system.cpu.itb.inst_hits                            0                       # ITB inst hits
system.cpu.itb.inst_misses                          0                       # ITB inst misses
system.cpu.itb.read_hits                            0                       # DTB read hits
system.cpu.itb.read_misses                          0                       # DTB read misses
system.cpu.itb.write_hits                           0                       # DTB write hits
system.cpu.itb.write_misses                         0                       # DTB write misses
system.cpu.itb.flush_tlb                            0                       # Number of times complete TLB was flushed
system.cpu.itb.flush_tlb_mva                        0                       # Number of times TLB was flushed by MVA
system.cpu.itb.flush_tlb_mva_asid                   0                       # Number of times TLB was flushed by MVA & ASID
system.cpu.itb.flush_tlb_asid                       0                       # Number of times TLB was flushed by ASID
system.cpu.itb.flush_entries                        0                       # Number of entries that have been flushed from TLB
system.cpu.itb.align_faults                         0                       # Number of TLB faults due to alignment restrictions
system.cpu.itb.prefetch_faults                      0                       # Number of TLB faults due to prefetch
system.cpu.itb.domain_faults                        0                       # Number of TLB faults due to domain restrictions
system.cpu.itb.perms_faults                         0                       # Number of TLB faults due to permissions restrictions
system.cpu.itb.read_accesses                        0                       # DTB read accesses
system.cpu.itb.write_accesses                       0                       # DTB write accesses
system.cpu.itb.inst_accesses                        0                       # ITB inst accesses
system.cpu.itb.hits                                 0                       # DTB hits
system.cpu.itb.misses                               0                       # DTB misses
system.cpu.itb.accesses                             0                       # DTB accesses
system.cpu.workload.numSyscalls                   239                       # Number of system calls
system.cpu.pwrStateResidencyTicks::ON    122292020500                       # Cumulative time (in ticks) in various power states
system.cpu.numCycles                        244584041                       # number of cpu cycles simulated
system.cpu.numWorkItemsStarted                      0                       # number of work items this cpu started
system.cpu.numWorkItemsCompleted                    0                       # number of work items this cpu completed
system.cpu.committedInsts                    43681711                       # Number of instructions committed
system.cpu.committedOps                      46438296                       # Number of ops (including micro ops) committed
system.cpu.num_int_alu_accesses              36551152                       # Number of integer alu accesses
system.cpu.num_fp_alu_accesses                     16                       # Number of float alu accesses
system.cpu.num_vec_alu_accesses                     0                       # Number of vector alu accesses
system.cpu.num_func_calls                      479840                       # number of times a function call or return occured
system.cpu.num_conditional_control_insts      9756863                       # number of instructions that are conditional controls
system.cpu.num_int_insts                     36551152                       # number of integer instructions
system.cpu.num_fp_insts                            16                       # number of float instructions
system.cpu.num_vec_insts                            0                       # number of vector instructions
system.cpu.num_int_register_reads            62405820                       # number of times the integer registers were read
system.cpu.num_int_register_writes           21331323                       # number of times the integer registers were written
system.cpu.num_fp_register_reads                   16                       # number of times the floating registers were read
system.cpu.num_fp_register_writes                   0                       # number of times the floating registers were written
system.cpu.num_vec_register_reads                   0                       # number of times the vector registers were read
system.cpu.num_vec_register_writes                  0                       # number of times the vector registers were written
system.cpu.num_cc_register_reads            167328399                       # number of times the CC registers were read
system.cpu.num_cc_register_writes            30215580                       # number of times the CC registers were written
system.cpu.num_mem_refs                      14199997                       # number of memory refs
system.cpu.num_load_insts                     9180679                       # Number of load instructions
system.cpu.num_store_insts                    5019318                       # Number of store instructions
system.cpu.num_idle_cycles                          0                       # Number of idle cycles
system.cpu.num_busy_cycles                  244584041                       # Number of busy cycles
system.cpu.not_idle_fraction                        1                       # Percentage of non-idle cycles
system.cpu.idle_fraction                            0                       # Percentage of idle cycles
system.cpu.Branches                          10612420                       # Number of branches fetched
system.cpu.op_class::No_OpClass                     0      0.00%      0.00% # Class of executed instruction
system.cpu.op_class::IntAlu                  32367985     69.48%     69.48% # Class of executed instruction
system.cpu.op_class::IntMult                    19468      0.04%     69.52% # Class of executed instruction
system.cpu.op_class::IntDiv                         0      0.00%     69.52% # Class of executed instruction
system.cpu.op_class::FloatAdd                       0      0.00%     69.52% # Class of executed instruction
system.cpu.op_class::FloatCmp                       0      0.00%     69.52% # Class of executed instruction
system.cpu.op_class::FloatCvt                       0      0.00%     69.52% # Class of executed instruction
system.cpu.op_class::FloatMult                      0      0.00%     69.52% # Class of executed instruction
system.cpu.op_class::FloatMultAcc                   0      0.00%     69.52% # Class of executed instruction
system.cpu.op_class::FloatDiv                       0      0.00%     69.52% # Class of executed instruction
system.cpu.op_class::FloatMisc                      0      0.00%     69.52% # Class of executed instruction
system.cpu.op_class::FloatSqrt                      0      0.00%     69.52% # Class of executed instruction
system.cpu.op_class::SimdAdd                        0      0.00%     69.52% # Class of executed instruction
system.cpu.op_class::SimdAddAcc                     0      0.00%     69.52% # Class of executed instruction
system.cpu.op_class::SimdAlu                        0      0.00%     69.52% # Class of executed instruction
system.cpu.op_class::SimdCmp                        0      0.00%     69.52% # Class of executed instruction
system.cpu.op_class::SimdCvt                        0      0.00%     69.52% # Class of executed instruction
system.cpu.op_class::SimdMisc                       0      0.00%     69.52% # Class of executed instruction
system.cpu.op_class::SimdMult                       0      0.00%     69.52% # Class of executed instruction
system.cpu.op_class::SimdMultAcc                    0      0.00%     69.52% # Class of executed instruction
system.cpu.op_class::SimdShift                      0      0.00%     69.52% # Class of executed instruction
system.cpu.op_class::SimdShiftAcc                   0      0.00%     69.52% # Class of executed instruction
system.cpu.op_class::SimdSqrt                       0      0.00%     69.52% # Class of executed instruction
system.cpu.op_class::SimdFloatAdd                   0      0.00%     69.52% # Class of executed instruction
system.cpu.op_class::SimdFloatAlu                   0      0.00%     69.52% # Class of executed instruction
system.cpu.op_class::SimdFloatCmp                   0      0.00%     69.52% # Class of executed instruction
system.cpu.op_class::SimdFloatCvt                   0      0.00%     69.52% # Class of executed instruction
system.cpu.op_class::SimdFloatDiv                   0      0.00%     69.52% # Class of executed instruction
system.cpu.op_class::SimdFloatMisc                  0      0.00%     69.52% # Class of executed instruction
system.cpu.op_class::SimdFloatMult                  0      0.00%     69.52% # Class of executed instruction
system.cpu.op_class::SimdFloatMultAcc               0      0.00%     69.52% # Class of executed instruction
system.cpu.op_class::SimdFloatSqrt                  0      0.00%     69.52% # Class of executed instruction
system.cpu.op_class::MemRead                  9180679     19.71%     89.23% # Class of executed instruction
system.cpu.op_class::MemWrite                 5019302     10.77%    100.00% # Class of executed instruction
system.cpu.op_class::FloatMemRead                   0      0.00%    100.00% # Class of executed instruction
system.cpu.op_class::FloatMemWrite                 16      0.00%    100.00% # Class of executed instruction
system.cpu.op_class::IprAccess                      0      0.00%    100.00% # Class of executed instruction
system.cpu.op_class::InstPrefetch                   0      0.00%    100.00% # Class of executed instruction
system.cpu.op_class::total                   46587450                       # Class of executed instruction
system.cpu.dcache.tags.pwrStateResidencyTicks::UNDEFINED 122292020500                       # Cumulative time (in ticks) in various power states
system.cpu.dcache.tags.tagsinuse            63.990550                       # Cycle average of tags in use
system.cpu.dcache.tags.total_refs            14101898                       # Total number of references to valid blocks.
system.cpu.dcache.tags.sampled_refs           2678540                       # Sample count of references to valid blocks.
system.cpu.dcache.tags.avg_refs              5.264770                       # Average number of references to valid blocks.
system.cpu.dcache.tags.warmup_cycle            258500                       # Cycle when the warmup percentage was hit.
system.cpu.dcache.tags.occ_blocks::.cpu.data    63.990550                       # Average occupied blocks per requestor
system.cpu.dcache.tags.occ_percent::.cpu.data     0.999852                       # Average percentage of cache occupancy
system.cpu.dcache.tags.occ_percent::total     0.999852                       # Average percentage of cache occupancy
system.cpu.dcache.tags.occ_task_id_blocks::1024           64                       # Occupied blocks per task id
system.cpu.dcache.tags.age_task_id_blocks_1024::0           25                       # Occupied blocks per task id
system.cpu.dcache.tags.age_task_id_blocks_1024::1           39                       # Occupied blocks per task id
system.cpu.dcache.tags.occ_task_id_percent::1024            1                       # Percentage of cache occupancy per task id
system.cpu.dcache.tags.tag_accesses          16780438                       # Number of tag accesses
system.cpu.dcache.tags.data_accesses         16780438                       # Number of data accesses
system.cpu.dcache.pwrStateResidencyTicks::UNDEFINED 122292020500                       # Cumulative time (in ticks) in various power states
system.cpu.dcache.ReadReq_hits::.cpu.data      6573927                       # number of ReadReq hits
system.cpu.dcache.ReadReq_hits::total         6573927                       # number of ReadReq hits
system.cpu.dcache.WriteReq_hits::.cpu.data      4658971                       # number of WriteReq hits
system.cpu.dcache.WriteReq_hits::total        4658971                       # number of WriteReq hits
system.cpu.dcache.LoadLockedReq_hits::.cpu.data        95230                       # number of LoadLockedReq hits
system.cpu.dcache.LoadLockedReq_hits::total        95230                       # number of LoadLockedReq hits
system.cpu.dcache.StoreCondReq_hits::.cpu.data        95230                       # number of StoreCondReq hits
system.cpu.dcache.StoreCondReq_hits::total        95230                       # number of StoreCondReq hits
system.cpu.dcache.demand_hits::.cpu.data     11232898                       # number of demand (read+write) hits
system.cpu.dcache.demand_hits::total         11232898                       # number of demand (read+write) hits
system.cpu.dcache.overall_hits::.cpu.data     11232898                       # number of overall hits
system.cpu.dcache.overall_hits::total        11232898                       # number of overall hits
system.cpu.dcache.ReadReq_misses::.cpu.data      2475112                       # number of ReadReq misses
system.cpu.dcache.ReadReq_misses::total       2475112                       # number of ReadReq misses
system.cpu.dcache.WriteReq_misses::.cpu.data       203428                       # number of WriteReq misses
system.cpu.dcache.WriteReq_misses::total       203428                       # number of WriteReq misses
system.cpu.dcache.demand_misses::.cpu.data      2678540                       # number of demand (read+write) misses
system.cpu.dcache.demand_misses::total        2678540                       # number of demand (read+write) misses
system.cpu.dcache.overall_misses::.cpu.data      2678540                       # number of overall misses
system.cpu.dcache.overall_misses::total       2678540                       # number of overall misses
system.cpu.dcache.ReadReq_miss_latency::.cpu.data  46404626000                       # number of ReadReq miss cycles
system.cpu.dcache.ReadReq_miss_latency::total  46404626000                       # number of ReadReq miss cycles
system.cpu.dcache.WriteReq_miss_latency::.cpu.data   3436084500                       # number of WriteReq miss cycles
system.cpu.dcache.WriteReq_miss_latency::total   3436084500                       # number of WriteReq miss cycles
system.cpu.dcache.demand_miss_latency::.cpu.data  49840710500                       # number of demand (read+write) miss cycles
system.cpu.dcache.demand_miss_latency::total  49840710500                       # number of demand (read+write) miss cycles
system.cpu.dcache.overall_miss_latency::.cpu.data  49840710500                       # number of overall miss cycles
system.cpu.dcache.overall_miss_latency::total  49840710500                       # number of overall miss cycles
system.cpu.dcache.ReadReq_accesses::.cpu.data      9049039                       # number of ReadReq accesses(hits+misses)
system.cpu.dcache.ReadReq_accesses::total      9049039                       # number of ReadReq accesses(hits+misses)
system.cpu.dcache.WriteReq_accesses::.cpu.data      4862399                       # number of WriteReq accesses(hits+misses)
system.cpu.dcache.WriteReq_accesses::total      4862399                       # number of WriteReq accesses(hits+misses)
system.cpu.dcache.LoadLockedReq_accesses::.cpu.data        95230                       # number of LoadLockedReq accesses(hits+misses)
system.cpu.dcache.LoadLockedReq_accesses::total        95230                       # number of LoadLockedReq accesses(hits+misses)
system.cpu.dcache.StoreCondReq_accesses::.cpu.data        95230                       # number of StoreCondReq accesses(hits+misses)
system.cpu.dcache.StoreCondReq_accesses::total        95230                       # number of StoreCondReq accesses(hits+misses)
system.cpu.dcache.demand_accesses::.cpu.data     13911438                       # number of demand (read+write) accesses
system.cpu.dcache.demand_accesses::total     13911438                       # number of demand (read+write) accesses
system.cpu.dcache.overall_accesses::.cpu.data     13911438                       # number of overall (read+write) accesses
system.cpu.dcache.overall_accesses::total     13911438                       # number of overall (read+write) accesses
system.cpu.dcache.ReadReq_miss_rate::.cpu.data     0.273522                       # miss rate for ReadReq accesses
system.cpu.dcache.ReadReq_miss_rate::total     0.273522                       # miss rate for ReadReq accesses
system.cpu.dcache.WriteReq_miss_rate::.cpu.data     0.041837                       # miss rate for WriteReq accesses
system.cpu.dcache.WriteReq_miss_rate::total     0.041837                       # miss rate for WriteReq accesses
system.cpu.dcache.demand_miss_rate::.cpu.data     0.192542                       # miss rate for demand accesses
system.cpu.dcache.demand_miss_rate::total     0.192542                       # miss rate for demand accesses
system.cpu.dcache.overall_miss_rate::.cpu.data     0.192542                       # miss rate for overall accesses
system.cpu.dcache.overall_miss_rate::total     0.192542                       # miss rate for overall accesses
system.cpu.dcache.ReadReq_avg_miss_latency::.cpu.data 18748.495422                       # average ReadReq miss latency
system.cpu.dcache.ReadReq_avg_miss_latency::total 18748.495422                       # average ReadReq miss latency
system.cpu.dcache.WriteReq_avg_miss_latency::.cpu.data 16890.912264                       # average WriteReq miss latency
system.cpu.dcache.WriteReq_avg_miss_latency::total 16890.912264                       # average WriteReq miss latency
system.cpu.dcache.demand_avg_miss_latency::.cpu.data 18607.416914                       # average overall miss latency
system.cpu.dcache.demand_avg_miss_latency::total 18607.416914                       # average overall miss latency
system.cpu.dcache.overall_avg_miss_latency::.cpu.data 18607.416914                       # average overall miss latency
system.cpu.dcache.overall_avg_miss_latency::total 18607.416914                       # average overall miss latency
system.cpu.dcache.blocked_cycles::no_mshrs            0                       # number of cycles access was blocked
system.cpu.dcache.blocked_cycles::no_targets            0                       # number of cycles access was blocked
system.cpu.dcache.blocked::no_mshrs                 0                       # number of cycles access was blocked
system.cpu.dcache.blocked::no_targets               0                       # number of cycles access was blocked
system.cpu.dcache.avg_blocked_cycles::no_mshrs          nan                       # average number of cycles each access was blocked
system.cpu.dcache.avg_blocked_cycles::no_targets          nan                       # average number of cycles each access was blocked
system.cpu.dcache.writebacks::.writebacks      1885344                       # number of writebacks
system.cpu.dcache.writebacks::total           1885344                       # number of writebacks
system.cpu.dcache.ReadReq_mshr_misses::.cpu.data      2475112                       # number of ReadReq MSHR misses
system.cpu.dcache.ReadReq_mshr_misses::total      2475112                       # number of ReadReq MSHR misses
system.cpu.dcache.WriteReq_mshr_misses::.cpu.data       203428                       # number of WriteReq MSHR misses
system.cpu.dcache.WriteReq_mshr_misses::total       203428                       # number of WriteReq MSHR misses
system.cpu.dcache.demand_mshr_misses::.cpu.data      2678540                       # number of demand (read+write) MSHR misses
system.cpu.dcache.demand_mshr_misses::total      2678540                       # number of demand (read+write) MSHR misses
system.cpu.dcache.overall_mshr_misses::.cpu.data      2678540                       # number of overall MSHR misses
system.cpu.dcache.overall_mshr_misses::total      2678540                       # number of overall MSHR misses
system.cpu.dcache.ReadReq_mshr_miss_latency::.cpu.data  43929514000                       # number of ReadReq MSHR miss cycles
system.cpu.dcache.ReadReq_mshr_miss_latency::total  43929514000                       # number of ReadReq MSHR miss cycles
system.cpu.dcache.WriteReq_mshr_miss_latency::.cpu.data   3232656500                       # number of WriteReq MSHR miss cycles
system.cpu.dcache.WriteReq_mshr_miss_latency::total   3232656500                       # number of WriteReq MSHR miss cycles
system.cpu.dcache.demand_mshr_miss_latency::.cpu.data  47162170500                       # number of demand (read+write) MSHR miss cycles
system.cpu.dcache.demand_mshr_miss_latency::total  47162170500                       # number of demand (read+write) MSHR miss cycles
system.cpu.dcache.overall_mshr_miss_latency::.cpu.data  47162170500                       # number of overall MSHR miss cycles
system.cpu.dcache.overall_mshr_miss_latency::total  47162170500                       # number of overall MSHR miss cycles
system.cpu.dcache.ReadReq_mshr_miss_rate::.cpu.data     0.273522                       # mshr miss rate for ReadReq accesses
system.cpu.dcache.ReadReq_mshr_miss_rate::total     0.273522                       # mshr miss rate for ReadReq accesses
system.cpu.dcache.WriteReq_mshr_miss_rate::.cpu.data     0.041837                       # mshr miss rate for WriteReq accesses
system.cpu.dcache.WriteReq_mshr_miss_rate::total     0.041837                       # mshr miss rate for WriteReq accesses
system.cpu.dcache.demand_mshr_miss_rate::.cpu.data     0.192542                       # mshr miss rate for demand accesses
system.cpu.dcache.demand_mshr_miss_rate::total     0.192542                       # mshr miss rate for demand accesses
system.cpu.dcache.overall_mshr_miss_rate::.cpu.data     0.192542                       # mshr miss rate for overall accesses
system.cpu.dcache.overall_mshr_miss_rate::total     0.192542                       # mshr miss rate for overall accesses
system.cpu.dcache.ReadReq_avg_mshr_miss_latency::.cpu.data 17748.495422                       # average ReadReq mshr miss latency
system.cpu.dcache.ReadReq_avg_mshr_miss_latency::total 17748.495422                       # average ReadReq mshr miss latency
system.cpu.dcache.WriteReq_avg_mshr_miss_latency::.cpu.data 15890.912264                       # average WriteReq mshr miss latency
system.cpu.dcache.WriteReq_avg_mshr_miss_latency::total 15890.912264                       # average WriteReq mshr miss latency
system.cpu.dcache.demand_avg_mshr_miss_latency::.cpu.data 17607.416914                       # average overall mshr miss latency
system.cpu.dcache.demand_avg_mshr_miss_latency::total 17607.416914                       # average overall mshr miss latency
system.cpu.dcache.overall_avg_mshr_miss_latency::.cpu.data 17607.416914                       # average overall mshr miss latency
system.cpu.dcache.overall_avg_mshr_miss_latency::total 17607.416914                       # average overall mshr miss latency
system.cpu.dcache.replacements                2678476                       # number of replacements
system.cpu.icache.tags.pwrStateResidencyTicks::UNDEFINED 122292020500                       # Cumulative time (in ticks) in various power states
system.cpu.icache.tags.tagsinuse            63.994447                       # Cycle average of tags in use
system.cpu.icache.tags.total_refs            43814015                       # Total number of references to valid blocks.
system.cpu.icache.tags.sampled_refs           1404486                       # Sample count of references to valid blocks.
system.cpu.icache.tags.avg_refs             31.195765                       # Average number of references to valid blocks.
system.cpu.icache.tags.warmup_cycle             87500                       # Cycle when the warmup percentage was hit.
system.cpu.icache.tags.occ_blocks::.cpu.inst    63.994447                       # Average occupied blocks per requestor
system.cpu.icache.tags.occ_percent::.cpu.inst     0.999913                       # Average percentage of cache occupancy
system.cpu.icache.tags.occ_percent::total     0.999913                       # Average percentage of cache occupancy
system.cpu.icache.tags.occ_task_id_blocks::1024           64                       # Occupied blocks per task id
system.cpu.icache.tags.age_task_id_blocks_1024::0           42                       # Occupied blocks per task id
system.cpu.icache.tags.age_task_id_blocks_1024::1           18                       # Occupied blocks per task id
system.cpu.icache.tags.age_task_id_blocks_1024::4            4                       # Occupied blocks per task id
system.cpu.icache.tags.occ_task_id_percent::1024            1                       # Percentage of cache occupancy per task id
system.cpu.icache.tags.tag_accesses          45218501                       # Number of tag accesses
system.cpu.icache.tags.data_accesses         45218501                       # Number of data accesses
system.cpu.icache.pwrStateResidencyTicks::UNDEFINED 122292020500                       # Cumulative time (in ticks) in various power states
system.cpu.icache.ReadReq_hits::.cpu.inst     42409529                       # number of ReadReq hits
system.cpu.icache.ReadReq_hits::total        42409529                       # number of ReadReq hits
system.cpu.icache.demand_hits::.cpu.inst     42409529                       # number of demand (read+write) hits
system.cpu.icache.demand_hits::total         42409529                       # number of demand (read+write) hits
system.cpu.icache.overall_hits::.cpu.inst     42409529                       # number of overall hits
system.cpu.icache.overall_hits::total        42409529                       # number of overall hits
system.cpu.icache.ReadReq_misses::.cpu.inst      1404486                       # number of ReadReq misses
system.cpu.icache.ReadReq_misses::total       1404486                       # number of ReadReq misses
system.cpu.icache.demand_misses::.cpu.inst      1404486                       # number of demand (read+write) misses
system.cpu.icache.demand_misses::total        1404486                       # number of demand (read+write) misses
system.cpu.icache.overall_misses::.cpu.inst      1404486                       # number of overall misses
system.cpu.icache.overall_misses::total       1404486                       # number of overall misses
system.cpu.icache.ReadReq_miss_latency::.cpu.inst  18650219500                       # number of ReadReq miss cycles
system.cpu.icache.ReadReq_miss_latency::total  18650219500                       # number of ReadReq miss cycles
system.cpu.icache.demand_miss_latency::.cpu.inst  18650219500                       # number of demand (read+write) miss cycles
system.cpu.icache.demand_miss_latency::total  18650219500                       # number of demand (read+write) miss cycles
system.cpu.icache.overall_miss_latency::.cpu.inst  18650219500                       # number of overall miss cycles
system.cpu.icache.overall_miss_latency::total  18650219500                       # number of overall miss cycles
system.cpu.icache.ReadReq_accesses::.cpu.inst     43814015                       # number of ReadReq accesses(hits+misses)
system.cpu.icache.ReadReq_accesses::total     43814015                       # number of ReadReq accesses(hits+misses)
system.cpu.icache.demand_accesses::.cpu.inst     43814015                       # number of demand (read+write) accesses
system.cpu.icache.demand_accesses::total     43814015                       # number of demand (read+write) accesses
system.cpu.icache.overall_accesses::.cpu.inst     43814015                       # number of overall (read+write) accesses
system.cpu.icache.overall_accesses::total     43814015                       # number of overall (read+write) accesses
system.cpu.icache.ReadReq_miss_rate::.cpu.inst     0.032056                       # miss rate for ReadReq accesses
system.cpu.icache.ReadReq_miss_rate::total     0.032056                       # miss rate for ReadReq accesses
system.cpu.icache.demand_miss_rate::.cpu.inst     0.032056                       # miss rate for demand accesses
system.cpu.icache.demand_miss_rate::total     0.032056                       # miss rate for demand accesses
system.cpu.icache.overall_miss_rate::.cpu.inst     0.032056                       # miss rate for overall accesses
system.cpu.icache.overall_miss_rate::total     0.032056                       # miss rate for overall accesses
system.cpu.icache.ReadReq_avg_miss_latency::.cpu.inst 13279.035533                       # average ReadReq miss latency
system.cpu.icache.ReadReq_avg_miss_latency::total 13279.035533                       # average ReadReq miss latency
system.cpu.icache.demand_avg_miss_latency::.cpu.inst 13279.035533                       # average overall miss latency
system.cpu.icache.demand_avg_miss_latency::total 13279.035533                       # average overall miss latency
[...]
system.l2.ReadCleanReq_accesses::.cpu.inst      1404486                       # number of ReadCleanReq accesses(hits+misses)
system.l2.ReadCleanReq_accesses::total        1404486                       # number of ReadCleanReq accesses(hits+misses)
system.l2.ReadSharedReq_accesses::.cpu.data      2475112                       # number of ReadSharedReq accesses(hits+misses)
system.l2.ReadSharedReq_accesses::total       2475112                       # number of ReadSharedReq accesses(hits+misses)
system.l2.demand_accesses::.cpu.inst          1404486                       # number of demand (read+write) accesses
system.l2.demand_accesses::.cpu.data          2678540                       # number of demand (read+write) accesses
system.l2.demand_accesses::total              4083026                       # number of demand (read+write) accesses
system.l2.overall_accesses::.cpu.inst         1404486                       # number of overall (read+write) accesses
system.l2.overall_accesses::.cpu.data         2678540                       # number of overall (read+write) accesses
system.l2.overall_accesses::total             4083026                       # number of overall (read+write) accesses
system.l2.ReadExReq_miss_rate::.cpu.data     0.015027                       # miss rate for ReadExReq accesses
system.l2.ReadExReq_miss_rate::total         0.015027                       # miss rate for ReadExReq accesses
system.l2.ReadCleanReq_miss_rate::.cpu.inst     0.003514                       # miss rate for ReadCleanReq accesses
system.l2.ReadCleanReq_miss_rate::total      0.003514                       # miss rate for ReadCleanReq accesses
system.l2.ReadSharedReq_miss_rate::.cpu.data     0.070808                       # miss rate for ReadSharedReq accesses
system.l2.ReadSharedReq_miss_rate::total     0.070808                       # miss rate for ReadSharedReq accesses
system.l2.demand_miss_rate::.cpu.inst        0.003514                       # miss rate for demand accesses
system.l2.demand_miss_rate::.cpu.data        0.066572                       # miss rate for demand accesses
system.l2.demand_miss_rate::total            0.044881                       # miss rate for demand accesses
system.l2.overall_miss_rate::.cpu.inst       0.003514                       # miss rate for overall accesses
system.l2.overall_miss_rate::.cpu.data       0.066572                       # miss rate for overall accesses
system.l2.overall_miss_rate::total           0.044881                       # miss rate for overall accesses
system.l2.ReadExReq_avg_miss_latency::.cpu.data 269420.673863                       # average ReadExReq miss latency
system.l2.ReadExReq_avg_miss_latency::total 269420.673863                       # average ReadExReq miss latency
system.l2.ReadCleanReq_avg_miss_latency::.cpu.inst 86860.717180                       # average ReadCleanReq miss latency
system.l2.ReadCleanReq_avg_miss_latency::total 86860.717180                       # average ReadCleanReq miss latency
system.l2.ReadSharedReq_avg_miss_latency::.cpu.data 91611.758094                       # average ReadSharedReq miss latency
system.l2.ReadSharedReq_avg_miss_latency::total 91611.758094                       # average ReadSharedReq miss latency
system.l2.demand_avg_miss_latency::.cpu.inst 86860.717180                       # average overall miss latency
system.l2.demand_avg_miss_latency::.cpu.data 94660.081878                       # average overall miss latency
system.l2.demand_avg_miss_latency::total 94450.000273                       # average overall miss latency
system.l2.overall_avg_miss_latency::.cpu.inst 86860.717180                       # average overall miss latency
system.l2.overall_avg_miss_latency::.cpu.data 94660.081878                       # average overall miss latency
system.l2.overall_avg_miss_latency::total 94450.000273                       # average overall miss latency
system.l2.blocked_cycles::no_mshrs                  0                       # number of cycles access was blocked
system.l2.blocked_cycles::no_targets                0                       # number of cycles access was blocked
system.l2.blocked::no_mshrs                         0                       # number of cycles access was blocked
system.l2.blocked::no_targets                       0                       # number of cycles access was blocked
system.l2.avg_blocked_cycles::no_mshrs            nan                       # average number of cycles each access was blocked
system.l2.avg_blocked_cycles::no_targets          nan                       # average number of cycles each access was blocked
system.l2.writebacks::.writebacks               13314                       # number of writebacks
system.l2.writebacks::total                     13314                       # number of writebacks
system.l2.CleanEvict_mshr_misses::.writebacks           57                       # number of CleanEvict MSHR misses
system.l2.CleanEvict_mshr_misses::total            57                       # number of CleanEvict MSHR misses
system.l2.ReadExReq_mshr_misses::.cpu.data         3057                       # number of ReadExReq MSHR misses
system.l2.ReadExReq_mshr_misses::total           3057                       # number of ReadExReq MSHR misses
system.l2.ReadCleanReq_mshr_misses::.cpu.inst         4936                       # number of ReadCleanReq MSHR misses
system.l2.ReadCleanReq_mshr_misses::total         4936                       # number of ReadCleanReq MSHR misses
system.l2.ReadSharedReq_mshr_misses::.cpu.data       175258                       # number of ReadSharedReq MSHR misses
system.l2.ReadSharedReq_mshr_misses::total       175258                       # number of ReadSharedReq MSHR misses
system.l2.demand_mshr_misses::.cpu.inst          4936                       # number of demand (read+write) MSHR misses
system.l2.demand_mshr_misses::.cpu.data        178315                       # number of demand (read+write) MSHR misses
system.l2.demand_mshr_misses::total            183251                       # number of demand (read+write) MSHR misses
system.l2.overall_mshr_misses::.cpu.inst         4936                       # number of overall MSHR misses
system.l2.overall_mshr_misses::.cpu.data       178315                       # number of overall MSHR misses
system.l2.overall_mshr_misses::total           183251                       # number of overall MSHR misses
system.l2.ReadExReq_mshr_miss_latency::.cpu.data    793049000                       # number of ReadExReq MSHR miss cycles
system.l2.ReadExReq_mshr_miss_latency::total    793049000                       # number of ReadExReq MSHR miss cycles
system.l2.ReadCleanReq_mshr_miss_latency::.cpu.inst    379384500                       # number of ReadCleanReq MSHR miss cycles
system.l2.ReadCleanReq_mshr_miss_latency::total    379384500                       # number of ReadCleanReq MSHR miss cycles
system.l2.ReadSharedReq_mshr_miss_latency::.cpu.data  14303113500                       # number of ReadSharedReq MSHR miss cycles
system.l2.ReadSharedReq_mshr_miss_latency::total  14303113500                       # number of ReadSharedReq MSHR miss cycles
system.l2.demand_mshr_miss_latency::.cpu.inst    379384500                       # number of demand (read+write) MSHR miss cycles
system.l2.demand_mshr_miss_latency::.cpu.data  15096162500                       # number of demand (read+write) MSHR miss cycles
system.l2.demand_mshr_miss_latency::total  15475547000                       # number of demand (read+write) MSHR miss cycles
system.l2.overall_mshr_miss_latency::.cpu.inst    379384500                       # number of overall MSHR miss cycles
system.l2.overall_mshr_miss_latency::.cpu.data  15096162500                       # number of overall MSHR miss cycles
system.l2.overall_mshr_miss_latency::total  15475547000                       # number of overall MSHR miss cycles
system.l2.CleanEvict_mshr_miss_rate::.writebacks          inf                       # mshr miss rate for CleanEvict accesses
system.l2.CleanEvict_mshr_miss_rate::total          inf                       # mshr miss rate for CleanEvict accesses
system.l2.ReadExReq_mshr_miss_rate::.cpu.data     0.015027                       # mshr miss rate for ReadExReq accesses
system.l2.ReadExReq_mshr_miss_rate::total     0.015027                       # mshr miss rate for ReadExReq accesses
system.l2.ReadCleanReq_mshr_miss_rate::.cpu.inst     0.003514                       # mshr miss rate for ReadCleanReq accesses
system.l2.ReadCleanReq_mshr_miss_rate::total     0.003514                       # mshr miss rate for ReadCleanReq accesses
system.l2.ReadSharedReq_mshr_miss_rate::.cpu.data     0.070808                       # mshr miss rate for ReadSharedReq accesses
system.l2.ReadSharedReq_mshr_miss_rate::total     0.070808                       # mshr miss rate for ReadSharedReq accesses
system.l2.demand_mshr_miss_rate::.cpu.inst     0.003514                       # mshr miss rate for demand accesses
system.l2.demand_mshr_miss_rate::.cpu.data     0.066572                       # mshr miss rate for demand accesses
system.l2.demand_mshr_miss_rate::total       0.044881                       # mshr miss rate for demand accesses
system.l2.overall_mshr_miss_rate::.cpu.inst     0.003514                       # mshr miss rate for overall accesses
system.l2.overall_mshr_miss_rate::.cpu.data     0.066572                       # mshr miss rate for overall accesses
system.l2.overall_mshr_miss_rate::total      0.044881                       # mshr miss rate for overall accesses
system.l2.ReadExReq_avg_mshr_miss_latency::.cpu.data 259420.673863                       # average ReadExReq mshr miss latency
system.l2.ReadExReq_avg_mshr_miss_latency::total 259420.673863                       # average ReadExReq mshr miss latency
system.l2.ReadCleanReq_avg_mshr_miss_latency::.cpu.inst 76860.717180                       # average ReadCleanReq mshr miss latency
system.l2.ReadCleanReq_avg_mshr_miss_latency::total 76860.717180                       # average ReadCleanReq mshr miss latency
system.l2.ReadSharedReq_avg_mshr_miss_latency::.cpu.data 81611.758094                       # average ReadSharedReq mshr miss latency
system.l2.ReadSharedReq_avg_mshr_miss_latency::total 81611.758094                       # average ReadSharedReq mshr miss latency
system.l2.demand_avg_mshr_miss_latency::.cpu.inst 76860.717180                       # average overall mshr miss latency
system.l2.demand_avg_mshr_miss_latency::.cpu.data 84660.081878                       # average overall mshr miss latency
system.l2.demand_avg_mshr_miss_latency::total 84450.000273                       # average overall mshr miss latency
system.l2.overall_avg_mshr_miss_latency::.cpu.inst 76860.717180                       # average overall mshr miss latency
system.l2.overall_avg_mshr_miss_latency::.cpu.data 84660.081878                       # average overall mshr miss latency
system.l2.overall_avg_mshr_miss_latency::total 84450.000273                       # average overall mshr miss latency
system.l2.replacements                         184252                       # number of replacements
system.membus.snoop_filter.tot_requests        365986                       # Total number of requests made to the snoop filter.
system.membus.snoop_filter.hit_single_requests       182735                       # Number of requests hitting in the snoop filter with a single holder of the requested data.
system.membus.snoop_filter.hit_multi_requests            0                       # Number of requests hitting in the snoop filter with multiple (>1) holders of the requested data.
system.membus.snoop_filter.tot_snoops               0                       # Total number of snoops made to the snoop filter.
system.membus.snoop_filter.hit_single_snoops            0                       # Number of snoops hitting in the snoop filter with a single holder of the requested data.
system.membus.snoop_filter.hit_multi_snoops            0                       # Number of snoops hitting in the snoop filter with multiple (>1) holders of the requested data.
system.membus.pwrStateResidencyTicks::UNDEFINED 122292020500                       # Cumulative time (in ticks) in various power states
system.membus.trans_dist::ReadResp             180194                       # Transaction distribution
system.membus.trans_dist::WritebackDirty        13314                       # Transaction distribution
system.membus.trans_dist::CleanEvict           169421                       # Transaction distribution
system.membus.trans_dist::ReadExReq              3057                       # Transaction distribution
system.membus.trans_dist::ReadExResp             3057                       # Transaction distribution
system.membus.trans_dist::ReadSharedReq        180194                       # Transaction distribution
system.membus.pkt_count_system.l2.mem_side::system.mem_ctrls.port       549237                       # Packet count per connected master and slave (bytes)
system.membus.pkt_count::total                 549237                       # Packet count per connected master and slave (bytes)
system.membus.pkt_size_system.l2.mem_side::system.mem_ctrls.port      6290080                       # Cumulative packet size per connected master and slave (bytes)
system.membus.pkt_size::total                 6290080                       # Cumulative packet size per connected master and slave (bytes)
system.membus.snoops                                0                       # Total snoops (count)
system.membus.snoopTraffic                          0                       # Total snoop traffic (bytes)
system.membus.snoop_fanout::samples            183251                       # Request fanout histogram
system.membus.snoop_fanout::mean                    0                       # Request fanout histogram
system.membus.snoop_fanout::stdev                   0                       # Request fanout histogram
system.membus.snoop_fanout::underflows              0      0.00%      0.00% # Request fanout histogram
system.membus.snoop_fanout::0                  183251    100.00%    100.00% # Request fanout histogram
system.membus.snoop_fanout::1                       0      0.00%    100.00% # Request fanout histogram
system.membus.snoop_fanout::overflows               0      0.00%    100.00% # Request fanout histogram
system.membus.snoop_fanout::min_value               0                       # Request fanout histogram
system.membus.snoop_fanout::max_value               0                       # Request fanout histogram
system.membus.snoop_fanout::total              183251                       # Request fanout histogram
system.membus.reqLayer0.occupancy           404320500                       # Layer occupancy (ticks)
system.membus.reqLayer0.utilization               0.3                       # Layer utilization (%)
system.membus.respLayer1.occupancy          600038250                       # Layer occupancy (ticks)
system.membus.respLayer1.utilization              0.5                       # Layer utilization (%)
system.tol2bus.snoop_filter.tot_requests      8165924                       # Total number of requests made to the snoop filter.
system.tol2bus.snoop_filter.hit_single_requests      4082900                       # Number of requests hitting in the snoop filter with a single holder of the requested data.
system.tol2bus.snoop_filter.hit_multi_requests        27660                       # Number of requests hitting in the snoop filter with multiple (>1) holders of the requested data.
system.tol2bus.snoop_filter.tot_snoops           1574                       # Total number of snoops made to the snoop filter.
system.tol2bus.snoop_filter.hit_single_snoops         1574                       # Number of snoops hitting in the snoop filter with a single holder of the requested data.
system.tol2bus.snoop_filter.hit_multi_snoops            0                       # Number of snoops hitting in the snoop filter with multiple (>1) holders of the requested data.
system.tol2bus.pwrStateResidencyTicks::UNDEFINED 122292020500                       # Cumulative time (in ticks) in various power states
system.tol2bus.trans_dist::ReadResp           3879598                       # Transaction distribution
system.tol2bus.trans_dist::WritebackDirty      1898658                       # Transaction distribution
system.tol2bus.trans_dist::WritebackClean      1404422                       # Transaction distribution
system.tol2bus.trans_dist::CleanEvict          964070                       # Transaction distribution
system.tol2bus.trans_dist::ReadExReq           203428                       # Transaction distribution
system.tol2bus.trans_dist::ReadExResp          203428                       # Transaction distribution
system.tol2bus.trans_dist::ReadCleanReq       1404486                       # Transaction distribution
system.tol2bus.trans_dist::ReadSharedReq      2475112                       # Transaction distribution
system.tol2bus.pkt_count_system.cpu.icache.mem_side::system.l2.cpu_side      4213394                       # Packet count per connected master and slave (bytes)
system.tol2bus.pkt_count_system.cpu.dcache.mem_side::system.l2.cpu_side      8035556                       # Packet count per connected master and slave (bytes)
system.tol2bus.pkt_count::total              12248950                       # Packet count per connected master and slave (bytes)
system.tol2bus.pkt_size_system.cpu.icache.mem_side::system.l2.cpu_side     89885056                       # Cumulative packet size per connected master and slave (bytes)
system.tol2bus.pkt_size_system.cpu.dcache.mem_side::system.l2.cpu_side    146044288                       # Cumulative packet size per connected master and slave (bytes)
system.tol2bus.pkt_size::total              235929344                       # Cumulative packet size per connected master and slave (bytes)
system.tol2bus.snoops                          184252                       # Total snoops (count)
system.tol2bus.snoopTraffic                    426048                       # Total snoop traffic (bytes)
system.tol2bus.snoop_fanout::samples          4267278                       # Request fanout histogram
system.tol2bus.snoop_fanout::mean            0.006851                       # Request fanout histogram
system.tol2bus.snoop_fanout::stdev           0.082488                       # Request fanout histogram
system.tol2bus.snoop_fanout::underflows             0      0.00%      0.00% # Request fanout histogram
system.tol2bus.snoop_fanout::0                4238042     99.31%     99.31% # Request fanout histogram
system.tol2bus.snoop_fanout::1                  29236      0.69%    100.00% # Request fanout histogram
system.tol2bus.snoop_fanout::2                      0      0.00%    100.00% # Request fanout histogram
system.tol2bus.snoop_fanout::overflows              0      0.00%    100.00% # Request fanout histogram
system.tol2bus.snoop_fanout::min_value              0                       # Request fanout histogram
system.tol2bus.snoop_fanout::max_value              1                       # Request fanout histogram
system.tol2bus.snoop_fanout::total            4267278                       # Request fanout histogram
system.tol2bus.reqLayer0.occupancy         5727845000                       # Layer occupancy (ticks)
system.tol2bus.reqLayer0.utilization              4.7                       # Layer utilization (%)
system.tol2bus.respLayer0.occupancy        1404486000                       # Layer occupancy (ticks)
system.tol2bus.respLayer0.utilization             1.1                       # Layer utilization (%)
system.tol2bus.respLayer1.occupancy        2678540000                       # Layer occupancy (ticks)
system.tol2bus.respLayer1.utilization             2.2                       # Layer utilization (%)

---------- End Simulation Statistics   ----------
