gem5 Simulator System.  http://gem5.org
gem5 is copyrighted software; use the --copyright option for details.

gem5 compiled Nov 14 2018 23:14:03
gem5 started Nov 14 2018 23:15:45
gem5 executing on Chinmay-Laptop, pid 29457
command line: /home/chinmaysj96/Desktop/project/gem52/gem5/build/ARM/gem5.opt -d /home/chinmaysj96/Desktop/project/gem52/gem5/p3qsort-srrip-final /home/chinmaysj96/Desktop/project/gem52/gem5/configs/example/se.py --cpu-type=TimingSimpleCPU --caches --l1d_size=1kB --l1d_assoc=4 --cacheline_size=32 --l2cache --num-l2caches=1 --l2_size=16kB --l2_assoc=16 --l1i_size=2kB --l1i_assoc=1 -c ./benchmarks/qsort/qsort_small -o ./benchmarks/qsort/input_small.dat

Global frequency set at 1000000000000 ticks per second
base madhe ahe
replacement data 0x562c7c818510
replacement data type 0x562c7ccb9b00
blk-set is 0
replacement data 0x562c7c818500
replacement data type 0x562c7ccb9b00
blk-set is 0
replacement data 0x562c7c8184f0
replacement data type 0x562c7ccb9b00
blk-set is 0
replacement data 0x562c7c8184e0
replacement data type 0x562c7ccb9b00
blk-set is 0
replacement data 0x562c7c8184d0
replacement data type 0x562c7ccb9b00
blk-set is 1
replacement data 0x562c7c8184c0
replacement data type 0x562c7ccb9b00
blk-set is 1
replacement data 0x562c7c8184b0
replacement data type 0x562c7ccb9b00
blk-set is 1
replacement data 0x562c7c8184a0
replacement data type 0x562c7ccb9b00
blk-set is 1
replacement data 0x562c7c818490
replacement data type 0x562c7ccb9b00
blk-set is 2
replacement data 0x562c7c818480
replacement data type 0x562c7ccb9b00
blk-set is 2
replacement data 0x562c7c818470
replacement data type 0x562c7ccb9b00
blk-set is 2
replacement data 0x562c7c818460
replacement data type 0x562c7ccb9b00
blk-set is 2
replacement data 0x562c7c818450
replacement data type 0x562c7ccb9b00
blk-set is 3
replacement data 0x562c7c818440
replacement data type 0x562c7ccb9b00
blk-set is 3
replacement data 0x562c7c818430
replacement data type 0x562c7ccb9b00
blk-set is 3
replacement data 0x562c7c818420
replacement data type 0x562c7ccb9b00
blk-set is 3
replacement data 0x562c7c818410
replacement data type 0x562c7ccb9b00
blk-set is 4
replacement data 0x562c7c818400
replacement data type 0x562c7ccb9b00
blk-set is 4
replacement data 0x562c7c8183f0
replacement data type 0x562c7ccb9b00
blk-set is 4
replacement data 0x562c7c8183e0
replacement data type 0x562c7ccb9b00
blk-set is 4
replacement data 0x562c7c8183d0
replacement data type 0x562c7ccb9b00
blk-set is 5
replacement data 0x562c7c8183c0
replacement data type 0x562c7ccb9b00
blk-set is 5
replacement data 0x562c7c818690
replacement data type 0x562c7ccb9b00
blk-set is 5
replacement data 0x562c7c8186a0
replacement data type 0x562c7ccb9b00
blk-set is 5
replacement data 0x562c7c8186b0
replacement data type 0x562c7ccb9b00
blk-set is 6
replacement data 0x562c7c8186c0
replacement data type 0x562c7ccb9b00
blk-set is 6
replacement data 0x562c7c8186d0
replacement data type 0x562c7ccb9b00
blk-set is 6
replacement data 0x562c7c8186e0
replacement data type 0x562c7ccb9b00
blk-set is 6
replacement data 0x562c7c8186f0
replacement data type 0x562c7ccb9b00
blk-set is 7
replacement data 0x562c7c818700
replacement data type 0x562c7ccb9b00
blk-set is 7
replacement data 0x562c7c818710
replacement data type 0x562c7ccb9b00
blk-set is 7
replacement data 0x562c7c818720
replacement data type 0x562c7ccb9b00
blk-set is 7
base madhe ahe
replacement data 0x562c7c818730
replacement data type 0x562c7ccb9bc0
blk-set is 0
replacement data 0x562c7c818740
replacement data type 0x562c7ccb9bc0
blk-set is 1
replacement data 0x562c7c818750
replacement data type 0x562c7ccb9bc0
blk-set is 2
replacement data 0x562c7c818760
replacement data type 0x562c7ccb9bc0
blk-set is 3
replacement data 0x562c7c818770
replacement data type 0x562c7ccb9bc0
blk-set is 4
replacement data 0x562c7c818780
replacement data type 0x562c7ccb9bc0
blk-set is 5
replacement data 0x562c7c818790
replacement data type 0x562c7ccb9bc0
blk-set is 6
replacement data 0x562c7c8187a0
replacement data type 0x562c7ccb9bc0
blk-set is 7
replacement data 0x562c7c8187b0
replacement data type 0x562c7ccb9bc0
blk-set is 8
replacement data 0x562c7c8187c0
replacement data type 0x562c7ccb9bc0
blk-set is 9
replacement data 0x562c7c8187d0
replacement data type 0x562c7ccb9bc0
blk-set is 10
replacement data 0x562c7c8187e0
replacement data type 0x562c7ccb9bc0
blk-set is 11
replacement data 0x562c7c8187f0
replacement data type 0x562c7ccb9bc0
blk-set is 12
replacement data 0x562c7c818800
replacement data type 0x562c7ccb9bc0
blk-set is 13
replacement data 0x562c7c818810
replacement data type 0x562c7ccb9bc0
blk-set is 14
replacement data 0x562c7c818820
replacement data type 0x562c7ccb9bc0
blk-set is 15
replacement data 0x562c7c818830
replacement data type 0x562c7ccb9bc0
blk-set is 16
replacement data 0x562c7c818840
replacement data type 0x562c7ccb9bc0
blk-set is 17
replacement data 0x562c7c818850
replacement data type 0x562c7ccb9bc0
blk-set is 18
replacement data 0x562c7c818860
replacement data type 0x562c7ccb9bc0
blk-set is 19
replacement data 0x562c7c818870
replacement data type 0x562c7ccb9bc0
blk-set is 20
replacement data 0x562c7c818880
replacement data type 0x562c7ccb9bc0
blk-set is 21
replacement data 0x562c7c818890
replacement data type 0x562c7ccb9bc0
blk-set is 22
replacement data 0x562c7c8188a0
replacement data type 0x562c7ccb9bc0
blk-set is 23
replacement data 0x562c7c8188b0
replacement data type 0x562c7ccb9bc0
blk-set is 24
replacement data 0x562c7c8188c0
replacement data type 0x562c7ccb9bc0
blk-set is 25
replacement data 0x562c7c8188d0
replacement data type 0x562c7ccb9bc0
blk-set is 26
replacement data 0x562c7c8188e0
replacement data type 0x562c7ccb9bc0
blk-set is 27
replacement data 0x562c7c8188f0
replacement data type 0x562c7ccb9bc0
blk-set is 28
replacement data 0x562c7c818900
replacement data type 0x562c7ccb9bc0
blk-set is 29
replacement data 0x562c7c818910
replacement data type 0x562c7ccb9bc0
blk-set is 30
replacement data 0x562c7c818920
replacement data type 0x562c7ccb9bc0
blk-set is 31
replacement data 0x562c7c818930
replacement data type 0x562c7ccb9bc0
blk-set is 32
replacement data 0x562c7c818940
replacement data type 0x562c7ccb9bc0
blk-set is 33
replacement data 0x562c7c818950
replacement data type 0x562c7ccb9bc0
blk-set is 34
replacement data 0x562c7c818960
replacement data type 0x562c7ccb9bc0
blk-set is 35
replacement data 0x562c7c818970
replacement data type 0x562c7ccb9bc0
blk-set is 36
replacement data 0x562c7c818980
replacement data type 0x562c7ccb9bc0
blk-set is 37
replacement data 0x562c7c818990
replacement data type 0x562c7ccb9bc0
blk-set is 38
replacement data 0x562c7c8189a0
replacement data type 0x562c7ccb9bc0
blk-set is 39
replacement data 0x562c7c8189b0
replacement data type 0x562c7ccb9bc0
blk-set is 40
replacement data 0x562c7c8189c0
replacement data type 0x562c7ccb9bc0
blk-set is 41
replacement data 0x562c7c8189d0
replacement data type 0x562c7ccb9bc0
blk-set is 42
replacement data 0x562c7c8189e0
replacement data type 0x562c7ccb9bc0
blk-set is 43
replacement data 0x562c7c8189f0
replacement data type 0x562c7ccb9bc0
blk-set is 44
replacement data 0x562c7c818a00
replacement data type 0x562c7ccb9bc0
blk-set is 45
replacement data 0x562c7c818a10
replacement data type 0x562c7ccb9bc0
blk-set is 46
replacement data 0x562c7c818a20
replacement data type 0x562c7ccb9bc0
blk-set is 47
replacement data 0x562c7c818a30
replacement data type 0x562c7ccb9bc0
blk-set is 48
replacement data 0x562c7c818a40
replacement data type 0x562c7ccb9bc0
blk-set is 49
replacement data 0x562c7c818a50
replacement data type 0x562c7ccb9bc0
blk-set is 50
replacement data 0x562c7c818a60
replacement data type 0x562c7ccb9bc0
blk-set is 51
replacement data 0x562c7c818a70
replacement data type 0x562c7ccb9bc0
blk-set is 52
replacement data 0x562c7c818a80
replacement data type 0x562c7ccb9bc0
blk-set is 53
replacement data 0x562c7c818a90
replacement data type 0x562c7ccb9bc0
blk-set is 54
replacement data 0x562c7c818aa0
replacement data type 0x562c7ccb9bc0
blk-set is 55
replacement data 0x562c7c818ab0
replacement data type 0x562c7ccb9bc0
blk-set is 56
replacement data 0x562c7c818ac0
replacement data type 0x562c7ccb9bc0
blk-set is 57
replacement data 0x562c7c818ad0
replacement data type 0x562c7ccb9bc0
blk-set is 58
replacement data 0x562c7c818ae0
replacement data type 0x562c7ccb9bc0
blk-set is 59
replacement data 0x562c7c818af0
replacement data type 0x562c7ccb9bc0
blk-set is 60
replacement data 0x562c7c818b00
replacement data type 0x562c7ccb9bc0
blk-set is 61
replacement data 0x562c7c818b10
replacement data type 0x562c7ccb9bc0
blk-set is 62
replacement data 0x562c7c818b20
replacement data type 0x562c7ccb9bc0
blk-set is 63
base madhe ahe
replacement data 0x562c7c818b30
replacement data type 0x562c7ccb9b40
blk-set is 0
replacement data 0x562c7c818b40
replacement data type 0x562c7ccb9b40
blk-set is 0
replacement data 0x562c7c818b50
replacement data type 0x562c7ccb9b40
blk-set is 0
replacement data 0x562c7c818b60
replacement data type 0x562c7ccb9b40
blk-set is 0
replacement data 0x562c7c818b70
replacement data type 0x562c7ccb9b40
blk-set is 0
replacement data 0x562c7c818b80
replacement data type 0x562c7ccb9b40
blk-set is 0
replacement data 0x562c7c818b90
replacement data type 0x562c7ccb9b40
blk-set is 0
replacement data 0x562c7c818ba0
replacement data type 0x562c7ccb9b40
blk-set is 0
replacement data 0x562c7c818bb0
replacement data type 0x562c7ccb9b40
blk-set is 0
replacement data 0x562c7c818bc0
replacement data type 0x562c7ccb9b40
blk-set is 0
replacement data 0x562c7c818bd0
replacement data type 0x562c7ccb9b40
blk-set is 0
replacement data 0x562c7c818be0
replacement data type 0x562c7ccb9b40
blk-set is 0
replacement data 0x562c7c818bf0
replacement data type 0x562c7ccb9b40
blk-set is 0
replacement data 0x562c7c818c00
replacement data type 0x562c7ccb9b40
blk-set is 0
replacement data 0x562c7c818c10
replacement data type 0x562c7ccb9b40
blk-set is 0
replacement data 0x562c7c818c20
replacement data type 0x562c7ccb9b40
blk-set is 0
replacement data 0x562c7c818c30
replacement data type 0x562c7ccb9b40
blk-set is 1
replacement data 0x562c7c818c40
replacement data type 0x562c7ccb9b40
blk-set is 1
replacement data 0x562c7c818c50
replacement data type 0x562c7ccb9b40
blk-set is 1
replacement data 0x562c7c818c60
replacement data type 0x562c7ccb9b40
blk-set is 1
replacement data 0x562c7c818c70
replacement data type 0x562c7ccb9b40
blk-set is 1
replacement data 0x562c7c818c80
replacement data type 0x562c7ccb9b40
blk-set is 1
replacement data 0x562c7c818c90
replacement data type 0x562c7ccb9b40
blk-set is 1
replacement data 0x562c7c818ca0
replacement data type 0x562c7ccb9b40
blk-set is 1
replacement data 0x562c7c818cb0
replacement data type 0x562c7ccb9b40
blk-set is 1
replacement data 0x562c7c818cc0
replacement data type 0x562c7ccb9b40
blk-set is 1
replacement data 0x562c7c818cd0
replacement data type 0x562c7ccb9b40
blk-set is 1
replacement data 0x562c7c818ce0
replacement data type 0x562c7ccb9b40
blk-set is 1
replacement data 0x562c7c818cf0
replacement data type 0x562c7ccb9b40
blk-set is 1
replacement data 0x562c7c818d00
replacement data type 0x562c7ccb9b40
blk-set is 1
replacement data 0x562c7c818d10
replacement data type 0x562c7ccb9b40
blk-set is 1
replacement data 0x562c7c818d20
replacement data type 0x562c7ccb9b40
blk-set is 1
replacement data 0x562c7c818d30
replacement data type 0x562c7ccb9b40
blk-set is 2
replacement data 0x562c7c818d40
replacement data type 0x562c7ccb9b40
blk-set is 2
replacement data 0x562c7c818d50
replacement data type 0x562c7ccb9b40
blk-set is 2
replacement data 0x562c7c818d60
replacement data type 0x562c7ccb9b40
blk-set is 2
replacement data 0x562c7c818d70
replacement data type 0x562c7ccb9b40
blk-set is 2
replacement data 0x562c7c818d80
replacement data type 0x562c7ccb9b40
blk-set is 2
replacement data 0x562c7c818d90
replacement data type 0x562c7ccb9b40
blk-set is 2
replacement data 0x562c7c818da0
replacement data type 0x562c7ccb9b40
blk-set is 2
replacement data 0x562c7c818db0
replacement data type 0x562c7ccb9b40
blk-set is 2
replacement data 0x562c7c818dc0
replacement data type 0x562c7ccb9b40
blk-set is 2
replacement data 0x562c7c818dd0
replacement data type 0x562c7ccb9b40
blk-set is 2
replacement data 0x562c7c818de0
replacement data type 0x562c7ccb9b40
blk-set is 2
replacement data 0x562c7c818df0
replacement data type 0x562c7ccb9b40
blk-set is 2
replacement data 0x562c7c818e00
replacement data type 0x562c7ccb9b40
blk-set is 2
replacement data 0x562c7c818e10
replacement data type 0x562c7ccb9b40
blk-set is 2
replacement data 0x562c7c818e20
replacement data type 0x562c7ccb9b40
blk-set is 2
replacement data 0x562c7c818e30
replacement data type 0x562c7ccb9b40
blk-set is 3
replacement data 0x562c7c818e40
replacement data type 0x562c7ccb9b40
blk-set is 3
replacement data 0x562c7c818e50
replacement data type 0x562c7ccb9b40
blk-set is 3
replacement data 0x562c7c818e60
replacement data type 0x562c7ccb9b40
blk-set is 3
replacement data 0x562c7c818e70
replacement data type 0x562c7ccb9b40
blk-set is 3
replacement data 0x562c7c818e80
replacement data type 0x562c7ccb9b40
blk-set is 3
replacement data 0x562c7c818e90
replacement data type 0x562c7ccb9b40
blk-set is 3
replacement data 0x562c7c818ea0
replacement data type 0x562c7ccb9b40
blk-set is 3
replacement data 0x562c7c818eb0
replacement data type 0x562c7ccb9b40
blk-set is 3
replacement data 0x562c7c818ec0
replacement data type 0x562c7ccb9b40
blk-set is 3
replacement data 0x562c7c818ed0
replacement data type 0x562c7ccb9b40
blk-set is 3
replacement data 0x562c7c818ee0
replacement data type 0x562c7ccb9b40
blk-set is 3
replacement data 0x562c7c818ef0
replacement data type 0x562c7ccb9b40
blk-set is 3
replacement data 0x562c7c818f00
replacement data type 0x562c7ccb9b40
blk-set is 3
replacement data 0x562c7c818f10
replacement data type 0x562c7ccb9b40
blk-set is 3
replacement data 0x562c7c818f20
replacement data type 0x562c7ccb9b40
blk-set is 3
replacement data 0x562c7c818f30
replacement data type 0x562c7ccb9b40
blk-set is 4
replacement data 0x562c7c818f40
replacement data type 0x562c7ccb9b40
blk-set is 4
replacement data 0x562c7c818f50
replacement data type 0x562c7ccb9b40
blk-set is 4
replacement data 0x562c7c818f60
replacement data type 0x562c7ccb9b40
blk-set is 4
replacement data 0x562c7c818f70
replacement data type 0x562c7ccb9b40
blk-set is 4
replacement data 0x562c7c818f80
replacement data type 0x562c7ccb9b40
blk-set is 4
replacement data 0x562c7c818f90
replacement data type 0x562c7ccb9b40
blk-set is 4
replacement data 0x562c7c818fa0
replacement data type 0x562c7ccb9b40
blk-set is 4
replacement data 0x562c7c818fb0
replacement data type 0x562c7ccb9b40
blk-set is 4
replacement data 0x562c7c818fc0
replacement data type 0x562c7ccb9b40
blk-set is 4
replacement data 0x562c7c818fd0
replacement data type 0x562c7ccb9b40
blk-set is 4
replacement data 0x562c7c818fe0
replacement data type 0x562c7ccb9b40
blk-set is 4
replacement data 0x562c7c818ff0
replacement data type 0x562c7ccb9b40
blk-set is 4
replacement data 0x562c7c819000
replacement data type 0x562c7ccb9b40
blk-set is 4
replacement data 0x562c7c819010
replacement data type 0x562c7ccb9b40
blk-set is 4
replacement data 0x562c7c819020
replacement data type 0x562c7ccb9b40
blk-set is 4
replacement data 0x562c7c819030
replacement data type 0x562c7ccb9b40
blk-set is 5
replacement data 0x562c7c819040
replacement data type 0x562c7ccb9b40
blk-set is 5
replacement data 0x562c7c819050
replacement data type 0x562c7ccb9b40
blk-set is 5
replacement data 0x562c7c819060
replacement data type 0x562c7ccb9b40
blk-set is 5
replacement data 0x562c7c819070
replacement data type 0x562c7ccb9b40
blk-set is 5
replacement data 0x562c7c819080
replacement data type 0x562c7ccb9b40
blk-set is 5
replacement data 0x562c7c819090
replacement data type 0x562c7ccb9b40
blk-set is 5
replacement data 0x562c7c8190a0
replacement data type 0x562c7ccb9b40
blk-set is 5
replacement data 0x562c7c8190b0
replacement data type 0x562c7ccb9b40
blk-set is 5
replacement data 0x562c7c8190c0
replacement data type 0x562c7ccb9b40
blk-set is 5
replacement data 0x562c7c8190d0
replacement data type 0x562c7ccb9b40
blk-set is 5
replacement data 0x562c7c8190e0
replacement data type 0x562c7ccb9b40
blk-set is 5
replacement data 0x562c7c8190f0
replacement data type 0x562c7ccb9b40
blk-set is 5
replacement data 0x562c7c819100
replacement data type 0x562c7ccb9b40
blk-set is 5
replacement data 0x562c7c819110
replacement data type 0x562c7ccb9b40
blk-set is 5
replacement data 0x562c7c819120
replacement data type 0x562c7ccb9b40
blk-set is 5
replacement data 0x562c7c819130
replacement data type 0x562c7ccb9b40
blk-set is 6
replacement data 0x562c7c819140
replacement data type 0x562c7ccb9b40
blk-set is 6
replacement data 0x562c7c819150
replacement data type 0x562c7ccb9b40
blk-set is 6
replacement data 0x562c7c819160
replacement data type 0x562c7ccb9b40
blk-set is 6
replacement data 0x562c7c819170
replacement data type 0x562c7ccb9b40
blk-set is 6
replacement data 0x562c7c819180
replacement data type 0x562c7ccb9b40
blk-set is 6
replacement data 0x562c7c819190
replacement data type 0x562c7ccb9b40
blk-set is 6
replacement data 0x562c7c8191a0
replacement data type 0x562c7ccb9b40
blk-set is 6
replacement data 0x562c7c8191b0
replacement data type 0x562c7ccb9b40
blk-set is 6
replacement data 0x562c7c8191c0
replacement data type 0x562c7ccb9b40
blk-set is 6
replacement data 0x562c7c8191d0
replacement data type 0x562c7ccb9b40
blk-set is 6
replacement data 0x562c7c8191e0
replacement data type 0x562c7ccb9b40
blk-set is 6
replacement data 0x562c7c8191f0
replacement data type 0x562c7ccb9b40
blk-set is 6
replacement data 0x562c7c819200
replacement data type 0x562c7ccb9b40
blk-set is 6
replacement data 0x562c7c819210
replacement data type 0x562c7ccb9b40
blk-set is 6
replacement data 0x562c7c819220
replacement data type 0x562c7ccb9b40
blk-set is 6
replacement data 0x562c7c819230
replacement data type 0x562c7ccb9b40
blk-set is 7
replacement data 0x562c7c819240
replacement data type 0x562c7ccb9b40
blk-set is 7
replacement data 0x562c7c819250
replacement data type 0x562c7ccb9b40
blk-set is 7
replacement data 0x562c7c819260
replacement data type 0x562c7ccb9b40
blk-set is 7
replacement data 0x562c7c819270
replacement data type 0x562c7ccb9b40
blk-set is 7
replacement data 0x562c7c819280
replacement data type 0x562c7ccb9b40
blk-set is 7
replacement data 0x562c7c819290
replacement data type 0x562c7ccb9b40
blk-set is 7
replacement data 0x562c7c8192a0
replacement data type 0x562c7ccb9b40
blk-set is 7
replacement data 0x562c7c8192b0
replacement data type 0x562c7ccb9b40
blk-set is 7
replacement data 0x562c7c8192c0
replacement data type 0x562c7ccb9b40
blk-set is 7
replacement data 0x562c7c8192d0
replacement data type 0x562c7ccb9b40
blk-set is 7
replacement data 0x562c7c8192e0
replacement data type 0x562c7ccb9b40
blk-set is 7
replacement data 0x562c7c8192f0
replacement data type 0x562c7ccb9b40
blk-set is 7
replacement data 0x562c7c819300
replacement data type 0x562c7ccb9b40
blk-set is 7
replacement data 0x562c7c819310
replacement data type 0x562c7ccb9b40
blk-set is 7
replacement data 0x562c7c819320
replacement data type 0x562c7ccb9b40
blk-set is 7
replacement data 0x562c7c819330
replacement data type 0x562c7ccb9b40
blk-set is 8
replacement data 0x562c7c819340
replacement data type 0x562c7ccb9b40
blk-set is 8
replacement data 0x562c7c819350
replacement data type 0x562c7ccb9b40
blk-set is 8
replacement data 0x562c7c819360
replacement data type 0x562c7ccb9b40
blk-set is 8
replacement data 0x562c7c819370
replacement data type 0x562c7ccb9b40
blk-set is 8
replacement data 0x562c7c819380
replacement data type 0x562c7ccb9b40
blk-set is 8
replacement data 0x562c7c819390
replacement data type 0x562c7ccb9b40
blk-set is 8
replacement data 0x562c7c8193a0
replacement data type 0x562c7ccb9b40
blk-set is 8
replacement data 0x562c7c8193b0
replacement data type 0x562c7ccb9b40
blk-set is 8
replacement data 0x562c7c8193c0
replacement data type 0x562c7ccb9b40
blk-set is 8
replacement data 0x562c7c8193d0
replacement data type 0x562c7ccb9b40
blk-set is 8
replacement data 0x562c7c8193e0
replacement data type 0x562c7ccb9b40
blk-set is 8
replacement data 0x562c7c8193f0
replacement data type 0x562c7ccb9b40
blk-set is 8
replacement data 0x562c7c819400
replacement data type 0x562c7ccb9b40
blk-set is 8
replacement data 0x562c7c819410
replacement data type 0x562c7ccb9b40
blk-set is 8
replacement data 0x562c7c819420
replacement data type 0x562c7ccb9b40
blk-set is 8
replacement data 0x562c7c819430
replacement data type 0x562c7ccb9b40
blk-set is 9
replacement data 0x562c7c819440
replacement data type 0x562c7ccb9b40
blk-set is 9
replacement data 0x562c7c819450
replacement data type 0x562c7ccb9b40
blk-set is 9
replacement data 0x562c7c819460
replacement data type 0x562c7ccb9b40
blk-set is 9
replacement data 0x562c7c819470
replacement data type 0x562c7ccb9b40
blk-set is 9
replacement data 0x562c7c819480
replacement data type 0x562c7ccb9b40
blk-set is 9
replacement data 0x562c7c819490
replacement data type 0x562c7ccb9b40
blk-set is 9
replacement data 0x562c7c8194a0
replacement data type 0x562c7ccb9b40
blk-set is 9
replacement data 0x562c7c8194b0
replacement data type 0x562c7ccb9b40
blk-set is 9
replacement data 0x562c7c8194c0
replacement data type 0x562c7ccb9b40
blk-set is 9
replacement data 0x562c7c8194d0
replacement data type 0x562c7ccb9b40
blk-set is 9
replacement data 0x562c7c8194e0
replacement data type 0x562c7ccb9b40
blk-set is 9
replacement data 0x562c7c8194f0
replacement data type 0x562c7ccb9b40
blk-set is 9
replacement data 0x562c7c819500
replacement data type 0x562c7ccb9b40
blk-set is 9
replacement data 0x562c7c819510
replacement data type 0x562c7ccb9b40
blk-set is 9
replacement data 0x562c7c819520
replacement data type 0x562c7ccb9b40
blk-set is 9
replacement data 0x562c7c819530
replacement data type 0x562c7ccb9b40
blk-set is 10
replacement data 0x562c7c819540
replacement data type 0x562c7ccb9b40
blk-set is 10
replacement data 0x562c7c819550
replacement data type 0x562c7ccb9b40
blk-set is 10
replacement data 0x562c7c819560
replacement data type 0x562c7ccb9b40
blk-set is 10
replacement data 0x562c7c819570
replacement data type 0x562c7ccb9b40
blk-set is 10
replacement data 0x562c7c819580
replacement data type 0x562c7ccb9b40
blk-set is 10
replacement data 0x562c7c819590
replacement data type 0x562c7ccb9b40
blk-set is 10
replacement data 0x562c7c8195a0
replacement data type 0x562c7ccb9b40
blk-set is 10
replacement data 0x562c7c8195b0
replacement data type 0x562c7ccb9b40
blk-set is 10
replacement data 0x562c7c8195c0
replacement data type 0x562c7ccb9b40
blk-set is 10
replacement data 0x562c7c8195d0
replacement data type 0x562c7ccb9b40
blk-set is 10
replacement data 0x562c7c8195e0
replacement data type 0x562c7ccb9b40
blk-set is 10
replacement data 0x562c7c8195f0
replacement data type 0x562c7ccb9b40
blk-set is 10
replacement data 0x562c7c819600
replacement data type 0x562c7ccb9b40
blk-set is 10
replacement data 0x562c7c819610
replacement data type 0x562c7ccb9b40
blk-set is 10
replacement data 0x562c7c819620
replacement data type 0x562c7ccb9b40
blk-set is 10
replacement data 0x562c7c819630
replacement data type 0x562c7ccb9b40
blk-set is 11
replacement data 0x562c7c819640
replacement data type 0x562c7ccb9b40
blk-set is 11
replacement data 0x562c7c819650
replacement data type 0x562c7ccb9b40
blk-set is 11
replacement data 0x562c7c819660
replacement data type 0x562c7ccb9b40
blk-set is 11
replacement data 0x562c7c819670
replacement data type 0x562c7ccb9b40
blk-set is 11
replacement data 0x562c7c819680
replacement data type 0x562c7ccb9b40
blk-set is 11
replacement data 0x562c7c819690
replacement data type 0x562c7ccb9b40
blk-set is 11
replacement data 0x562c7c8196a0
replacement data type 0x562c7ccb9b40
blk-set is 11
replacement data 0x562c7c8196b0
replacement data type 0x562c7ccb9b40
blk-set is 11
replacement data 0x562c7c8196c0
replacement data type 0x562c7ccb9b40
blk-set is 11
replacement data 0x562c7c8196d0
replacement data type 0x562c7ccb9b40
blk-set is 11
replacement data 0x562c7c8196e0
replacement data type 0x562c7ccb9b40
blk-set is 11
replacement data 0x562c7c8196f0
replacement data type 0x562c7ccb9b40
blk-set is 11
replacement data 0x562c7c819700
replacement data type 0x562c7ccb9b40
blk-set is 11
replacement data 0x562c7c819710
replacement data type 0x562c7ccb9b40
blk-set is 11
replacement data 0x562c7c819720
replacement data type 0x562c7ccb9b40
blk-set is 11
replacement data 0x562c7c819730
replacement data type 0x562c7ccb9b40
blk-set is 12
replacement data 0x562c7c819740
replacement data type 0x562c7ccb9b40
blk-set is 12
replacement data 0x562c7c819750
replacement data type 0x562c7ccb9b40
blk-set is 12
replacement data 0x562c7c819760
replacement data type 0x562c7ccb9b40
blk-set is 12
replacement data 0x562c7c819770
replacement data type 0x562c7ccb9b40
blk-set is 12
replacement data 0x562c7c819780
replacement data type 0x562c7ccb9b40
blk-set is 12
replacement data 0x562c7c819790
replacement data type 0x562c7ccb9b40
blk-set is 12
replacement data 0x562c7c8197a0
replacement data type 0x562c7ccb9b40
blk-set is 12
replacement data 0x562c7c8197b0
replacement data type 0x562c7ccb9b40
blk-set is 12
replacement data 0x562c7c8197c0
replacement data type 0x562c7ccb9b40
blk-set is 12
replacement data 0x562c7c8197d0
replacement data type 0x562c7ccb9b40
blk-set is 12
replacement data 0x562c7c8197e0
replacement data type 0x562c7ccb9b40
blk-set is 12
replacement data 0x562c7c8197f0
replacement data type 0x562c7ccb9b40
blk-set is 12
replacement data 0x562c7c819800
replacement data type 0x562c7ccb9b40
blk-set is 12
replacement data 0x562c7c819810
replacement data type 0x562c7ccb9b40
blk-set is 12
replacement data 0x562c7c819820
replacement data type 0x562c7ccb9b40
blk-set is 12
replacement data 0x562c7c819830
replacement data type 0x562c7ccb9b40
blk-set is 13
replacement data 0x562c7c819840
replacement data type 0x562c7ccb9b40
blk-set is 13
replacement data 0x562c7c819850
replacement data type 0x562c7ccb9b40
blk-set is 13
replacement data 0x562c7c819860
replacement data type 0x562c7ccb9b40
blk-set is 13
replacement data 0x562c7c819870
replacement data type 0x562c7ccb9b40
blk-set is 13
replacement data 0x562c7c819880
replacement data type 0x562c7ccb9b40
blk-set is 13
replacement data 0x562c7c819890
replacement data type 0x562c7ccb9b40
blk-set is 13
replacement data 0x562c7c8198a0
replacement data type 0x562c7ccb9b40
blk-set is 13
replacement data 0x562c7c8198b0
replacement data type 0x562c7ccb9b40
blk-set is 13
replacement data 0x562c7c8198c0
replacement data type 0x562c7ccb9b40
blk-set is 13
replacement data 0x562c7c8198d0
replacement data type 0x562c7ccb9b40
blk-set is 13
replacement data 0x562c7c8198e0
replacement data type 0x562c7ccb9b40
blk-set is 13
replacement data 0x562c7c8198f0
replacement data type 0x562c7ccb9b40
blk-set is 13
replacement data 0x562c7c819900
replacement data type 0x562c7ccb9b40
blk-set is 13
replacement data 0x562c7c819910
replacement data type 0x562c7ccb9b40
blk-set is 13
replacement data 0x562c7c819920
replacement data type 0x562c7ccb9b40
blk-set is 13
replacement data 0x562c7c819930
replacement data type 0x562c7ccb9b40
blk-set is 14
replacement data 0x562c7c819940
replacement data type 0x562c7ccb9b40
blk-set is 14
replacement data 0x562c7c819950
replacement data type 0x562c7ccb9b40
blk-set is 14
replacement data 0x562c7c819960
replacement data type 0x562c7ccb9b40
blk-set is 14
replacement data 0x562c7c819970
replacement data type 0x562c7ccb9b40
blk-set is 14
replacement data 0x562c7c819980
replacement data type 0x562c7ccb9b40
blk-set is 14
replacement data 0x562c7c819990
replacement data type 0x562c7ccb9b40
blk-set is 14
replacement data 0x562c7c8199a0
replacement data type 0x562c7ccb9b40
blk-set is 14
replacement data 0x562c7c8199b0
replacement data type 0x562c7ccb9b40
blk-set is 14
replacement data 0x562c7c8199c0
replacement data type 0x562c7ccb9b40
blk-set is 14
replacement data 0x562c7c8199d0
replacement data type 0x562c7ccb9b40
blk-set is 14
replacement data 0x562c7c8199e0
replacement data type 0x562c7ccb9b40
blk-set is 14
replacement data 0x562c7c8199f0
replacement data type 0x562c7ccb9b40
blk-set is 14
replacement data 0x562c7c819a00
replacement data type 0x562c7ccb9b40
blk-set is 14
replacement data 0x562c7c819a10
replacement data type 0x562c7ccb9b40
blk-set is 14
replacement data 0x562c7c819a20
replacement data type 0x562c7ccb9b40
blk-set is 14
replacement data 0x562c7c819a30
replacement data type 0x562c7ccb9b40
blk-set is 15
replacement data 0x562c7c819a40
replacement data type 0x562c7ccb9b40
blk-set is 15
replacement data 0x562c7c819a50
replacement data type 0x562c7ccb9b40
blk-set is 15
replacement data 0x562c7c819a60
replacement data type 0x562c7ccb9b40
blk-set is 15
replacement data 0x562c7c819a70
replacement data type 0x562c7ccb9b40
blk-set is 15
replacement data 0x562c7c819a80
replacement data type 0x562c7ccb9b40
blk-set is 15
replacement data 0x562c7c819a90
replacement data type 0x562c7ccb9b40
blk-set is 15
replacement data 0x562c7c819aa0
replacement data type 0x562c7ccb9b40
blk-set is 15
replacement data 0x562c7c819ab0
replacement data type 0x562c7ccb9b40
blk-set is 15
replacement data 0x562c7c819ac0
replacement data type 0x562c7ccb9b40
blk-set is 15
replacement data 0x562c7c819ad0
replacement data type 0x562c7ccb9b40
blk-set is 15
replacement data 0x562c7c819ae0
replacement data type 0x562c7ccb9b40
blk-set is 15
replacement data 0x562c7c819af0
replacement data type 0x562c7ccb9b40
blk-set is 15
replacement data 0x562c7c819b00
replacement data type 0x562c7ccb9b40
blk-set is 15
replacement data 0x562c7c819b10
replacement data type 0x562c7ccb9b40
blk-set is 15
replacement data 0x562c7c819b20
replacement data type 0x562c7ccb9b40
blk-set is 15
replacement data 0x562c7c819b30
replacement data type 0x562c7ccb9b40
blk-set is 16
replacement data 0x562c7c819b40
replacement data type 0x562c7ccb9b40
blk-set is 16
replacement data 0x562c7c819b50
replacement data type 0x562c7ccb9b40
blk-set is 16
replacement data 0x562c7c819b60
replacement data type 0x562c7ccb9b40
blk-set is 16
replacement data 0x562c7c819b70
replacement data type 0x562c7ccb9b40
blk-set is 16
replacement data 0x562c7c819b80
replacement data type 0x562c7ccb9b40
blk-set is 16
replacement data 0x562c7c819b90
replacement data type 0x562c7ccb9b40
blk-set is 16
replacement data 0x562c7c819ba0
replacement data type 0x562c7ccb9b40
blk-set is 16
replacement data 0x562c7c819bb0
replacement data type 0x562c7ccb9b40
blk-set is 16
replacement data 0x562c7c819bc0
replacement data type 0x562c7ccb9b40
blk-set is 16
replacement data 0x562c7c819bd0
replacement data type 0x562c7ccb9b40
blk-set is 16
replacement data 0x562c7c819be0
replacement data type 0x562c7ccb9b40
blk-set is 16
replacement data 0x562c7c819bf0
replacement data type 0x562c7ccb9b40
blk-set is 16
replacement data 0x562c7c819c00
replacement data type 0x562c7ccb9b40
blk-set is 16
replacement data 0x562c7c819c10
replacement data type 0x562c7ccb9b40
blk-set is 16
replacement data 0x562c7c819c20
replacement data type 0x562c7ccb9b40
blk-set is 16
replacement data 0x562c7c819c30
replacement data type 0x562c7ccb9b40
blk-set is 17
replacement data 0x562c7c819c40
replacement data type 0x562c7ccb9b40
blk-set is 17
replacement data 0x562c7c819c50
replacement data type 0x562c7ccb9b40
blk-set is 17
replacement data 0x562c7c819c60
replacement data type 0x562c7ccb9b40
blk-set is 17
replacement data 0x562c7c819c70
replacement data type 0x562c7ccb9b40
blk-set is 17
replacement data 0x562c7c819c80
replacement data type 0x562c7ccb9b40
blk-set is 17
replacement data 0x562c7c819c90
replacement data type 0x562c7ccb9b40
blk-set is 17
replacement data 0x562c7c819ca0
replacement data type 0x562c7ccb9b40
blk-set is 17
replacement data 0x562c7c819cb0
replacement data type 0x562c7ccb9b40
blk-set is 17
replacement data 0x562c7c819cc0
replacement data type 0x562c7ccb9b40
blk-set is 17
replacement data 0x562c7c819cd0
replacement data type 0x562c7ccb9b40
blk-set is 17
replacement data 0x562c7c819ce0
replacement data type 0x562c7ccb9b40
blk-set is 17
replacement data 0x562c7c819cf0
replacement data type 0x562c7ccb9b40
blk-set is 17
replacement data 0x562c7c819d00
replacement data type 0x562c7ccb9b40
blk-set is 17
replacement data 0x562c7c819d10
replacement data type 0x562c7ccb9b40
blk-set is 17
replacement data 0x562c7c819d20
replacement data type 0x562c7ccb9b40
blk-set is 17
replacement data 0x562c7c819d30
replacement data type 0x562c7ccb9b40
blk-set is 18
replacement data 0x562c7c819d40
replacement data type 0x562c7ccb9b40
blk-set is 18
replacement data 0x562c7c819d50
replacement data type 0x562c7ccb9b40
blk-set is 18
replacement data 0x562c7c819d60
replacement data type 0x562c7ccb9b40
blk-set is 18
replacement data 0x562c7c819d70
replacement data type 0x562c7ccb9b40
blk-set is 18
replacement data 0x562c7c819d80
replacement data type 0x562c7ccb9b40
blk-set is 18
replacement data 0x562c7c819d90
replacement data type 0x562c7ccb9b40
blk-set is 18
replacement data 0x562c7c819da0
replacement data type 0x562c7ccb9b40
blk-set is 18
replacement data 0x562c7c819db0
replacement data type 0x562c7ccb9b40
blk-set is 18
replacement data 0x562c7c819dc0
replacement data type 0x562c7ccb9b40
blk-set is 18
replacement data 0x562c7c819dd0
replacement data type 0x562c7ccb9b40
blk-set is 18
replacement data 0x562c7c819de0
replacement data type 0x562c7ccb9b40
blk-set is 18
replacement data 0x562c7c819df0
replacement data type 0x562c7ccb9b40
blk-set is 18
replacement data 0x562c7c819e00
replacement data type 0x562c7ccb9b40
blk-set is 18
replacement data 0x562c7c819e10
replacement data type 0x562c7ccb9b40
blk-set is 18
replacement data 0x562c7c819e20
replacement data type 0x562c7ccb9b40
blk-set is 18
replacement data 0x562c7c819e30
replacement data type 0x562c7ccb9b40
blk-set is 19
replacement data 0x562c7c819e40
replacement data type 0x562c7ccb9b40
blk-set is 19
replacement data 0x562c7c819e50
replacement data type 0x562c7ccb9b40
blk-set is 19
replacement data 0x562c7c819e60
replacement data type 0x562c7ccb9b40
blk-set is 19
replacement data 0x562c7c819e70
replacement data type 0x562c7ccb9b40
blk-set is 19
replacement data 0x562c7c819e80
replacement data type 0x562c7ccb9b40
blk-set is 19
replacement data 0x562c7c819e90
replacement data type 0x562c7ccb9b40
blk-set is 19
replacement data 0x562c7c819ea0
replacement data type 0x562c7ccb9b40
blk-set is 19
replacement data 0x562c7c819eb0
replacement data type 0x562c7ccb9b40
blk-set is 19
replacement data 0x562c7c819ec0
replacement data type 0x562c7ccb9b40
blk-set is 19
replacement data 0x562c7c819ed0
replacement data type 0x562c7ccb9b40
blk-set is 19
replacement data 0x562c7c819ee0
replacement data type 0x562c7ccb9b40
blk-set is 19
replacement data 0x562c7c819ef0
replacement data type 0x562c7ccb9b40
blk-set is 19
replacement data 0x562c7c819f00
replacement data type 0x562c7ccb9b40
blk-set is 19
replacement data 0x562c7c819f10
replacement data type 0x562c7ccb9b40
blk-set is 19
replacement data 0x562c7c819f20
replacement data type 0x562c7ccb9b40
blk-set is 19
replacement data 0x562c7c819f30
replacement data type 0x562c7ccb9b40
blk-set is 20
replacement data 0x562c7c819f40
replacement data type 0x562c7ccb9b40
blk-set is 20
replacement data 0x562c7c819f50
replacement data type 0x562c7ccb9b40
blk-set is 20
replacement data 0x562c7c819f60
replacement data type 0x562c7ccb9b40
blk-set is 20
replacement data 0x562c7c819f70
replacement data type 0x562c7ccb9b40
blk-set is 20
replacement data 0x562c7c819f80
replacement data type 0x562c7ccb9b40
blk-set is 20
replacement data 0x562c7c819f90
replacement data type 0x562c7ccb9b40
blk-set is 20
replacement data 0x562c7c819fa0
replacement data type 0x562c7ccb9b40
blk-set is 20
replacement data 0x562c7c819fb0
replacement data type 0x562c7ccb9b40
blk-set is 20
replacement data 0x562c7c819fc0
replacement data type 0x562c7ccb9b40
blk-set is 20
replacement data 0x562c7c819fd0
replacement data type 0x562c7ccb9b40
blk-set is 20
replacement data 0x562c7c819fe0
replacement data type 0x562c7ccb9b40
blk-set is 20
replacement data 0x562c7c819ff0
replacement data type 0x562c7ccb9b40
blk-set is 20
replacement data 0x562c7d166000
replacement data type 0x562c7ccb9b40
blk-set is 20
replacement data 0x562c7d166010
replacement data type 0x562c7ccb9b40
blk-set is 20
replacement data 0x562c7d166020
replacement data type 0x562c7ccb9b40
blk-set is 20
replacement data 0x562c7d166030
replacement data type 0x562c7ccb9b40
blk-set is 21
replacement data 0x562c7d166040
replacement data type 0x562c7ccb9b40
blk-set is 21
replacement data 0x562c7d166050
replacement data type 0x562c7ccb9b40
blk-set is 21
replacement data 0x562c7d166060
replacement data type 0x562c7ccb9b40
blk-set is 21
replacement data 0x562c7d166070
replacement data type 0x562c7ccb9b40
blk-set is 21
replacement data 0x562c7d166080
replacement data type 0x562c7ccb9b40
blk-set is 21
replacement data 0x562c7d166090
replacement data type 0x562c7ccb9b40
blk-set is 21
replacement data 0x562c7d1660a0
replacement data type 0x562c7ccb9b40
blk-set is 21
replacement data 0x562c7d1660b0
replacement data type 0x562c7ccb9b40
blk-set is 21
replacement data 0x562c7d1660c0
replacement data type 0x562c7ccb9b40
blk-set is 21
replacement data 0x562c7d1660d0
replacement data type 0x562c7ccb9b40
blk-set is 21
replacement data 0x562c7d1660e0
replacement data type 0x562c7ccb9b40
blk-set is 21
replacement data 0x562c7d1660f0
replacement data type 0x562c7ccb9b40
blk-set is 21
replacement data 0x562c7d166100
replacement data type 0x562c7ccb9b40
blk-set is 21
replacement data 0x562c7d166110
replacement data type 0x562c7ccb9b40
blk-set is 21
replacement data 0x562c7d166120
replacement data type 0x562c7ccb9b40
blk-set is 21
replacement data 0x562c7d166130
replacement data type 0x562c7ccb9b40
blk-set is 22
replacement data 0x562c7d166140
replacement data type 0x562c7ccb9b40
blk-set is 22
replacement data 0x562c7d166150
replacement data type 0x562c7ccb9b40
blk-set is 22
replacement data 0x562c7d166160
replacement data type 0x562c7ccb9b40
blk-set is 22
replacement data 0x562c7d166170
replacement data type 0x562c7ccb9b40
blk-set is 22
replacement data 0x562c7d166180
replacement data type 0x562c7ccb9b40
blk-set is 22
replacement data 0x562c7d166190
replacement data type 0x562c7ccb9b40
blk-set is 22
replacement data 0x562c7d1661a0
replacement data type 0x562c7ccb9b40
blk-set is 22
replacement data 0x562c7d1661b0
replacement data type 0x562c7ccb9b40
blk-set is 22
replacement data 0x562c7d1661c0
replacement data type 0x562c7ccb9b40
blk-set is 22
replacement data 0x562c7d1661d0
replacement data type 0x562c7ccb9b40
blk-set is 22
replacement data 0x562c7d1661e0
replacement data type 0x562c7ccb9b40
blk-set is 22
replacement data 0x562c7d1661f0
replacement data type 0x562c7ccb9b40
blk-set is 22
replacement data 0x562c7d166200
replacement data type 0x562c7ccb9b40
blk-set is 22
replacement data 0x562c7d166210
replacement data type 0x562c7ccb9b40
blk-set is 22
replacement data 0x562c7d166220
replacement data type 0x562c7ccb9b40
blk-set is 22
replacement data 0x562c7d166230
replacement data type 0x562c7ccb9b40
blk-set is 23
replacement data 0x562c7d166240
replacement data type 0x562c7ccb9b40
blk-set is 23
replacement data 0x562c7d166250
replacement data type 0x562c7ccb9b40
blk-set is 23
replacement data 0x562c7d166260
replacement data type 0x562c7ccb9b40
blk-set is 23
replacement data 0x562c7d166270
replacement data type 0x562c7ccb9b40
blk-set is 23
replacement data 0x562c7d166280
replacement data type 0x562c7ccb9b40
blk-set is 23
replacement data 0x562c7d166290
replacement data type 0x562c7ccb9b40
blk-set is 23
replacement data 0x562c7d1662a0
replacement data type 0x562c7ccb9b40
blk-set is 23
replacement data 0x562c7d1662b0
replacement data type 0x562c7ccb9b40
blk-set is 23
replacement data 0x562c7d1662c0
replacement data type 0x562c7ccb9b40
blk-set is 23
replacement data 0x562c7d1662d0
replacement data type 0x562c7ccb9b40
blk-set is 23
replacement data 0x562c7d1662e0
replacement data type 0x562c7ccb9b40
blk-set is 23
replacement data 0x562c7d1662f0
replacement data type 0x562c7ccb9b40
blk-set is 23
replacement data 0x562c7d166300
replacement data type 0x562c7ccb9b40
blk-set is 23
replacement data 0x562c7d166310
replacement data type 0x562c7ccb9b40
blk-set is 23
replacement data 0x562c7d166320
replacement data type 0x562c7ccb9b40
blk-set is 23
replacement data 0x562c7d166330
replacement data type 0x562c7ccb9b40
blk-set is 24
replacement data 0x562c7d166340
replacement data type 0x562c7ccb9b40
blk-set is 24
replacement data 0x562c7d166350
replacement data type 0x562c7ccb9b40
blk-set is 24
replacement data 0x562c7d166360
replacement data type 0x562c7ccb9b40
blk-set is 24
replacement data 0x562c7d166370
replacement data type 0x562c7ccb9b40
blk-set is 24
replacement data 0x562c7d166380
replacement data type 0x562c7ccb9b40
blk-set is 24
replacement data 0x562c7d166390
replacement data type 0x562c7ccb9b40
blk-set is 24
replacement data 0x562c7d1663a0
replacement data type 0x562c7ccb9b40
blk-set is 24
replacement data 0x562c7d1663b0
replacement data type 0x562c7ccb9b40
blk-set is 24
replacement data 0x562c7d1663c0
replacement data type 0x562c7ccb9b40
blk-set is 24
replacement data 0x562c7d1663d0
replacement data type 0x562c7ccb9b40
blk-set is 24
replacement data 0x562c7d1663e0
replacement data type 0x562c7ccb9b40
blk-set is 24
replacement data 0x562c7d1663f0
replacement data type 0x562c7ccb9b40
blk-set is 24
replacement data 0x562c7d166400
replacement data type 0x562c7ccb9b40
blk-set is 24
replacement data 0x562c7d166410
replacement data type 0x562c7ccb9b40
blk-set is 24
replacement data 0x562c7d166420
replacement data type 0x562c7ccb9b40
blk-set is 24
replacement data 0x562c7d166430
replacement data type 0x562c7ccb9b40
blk-set is 25
replacement data 0x562c7d166440
replacement data type 0x562c7ccb9b40
blk-set is 25
replacement data 0x562c7d166450
replacement data type 0x562c7ccb9b40
blk-set is 25
replacement data 0x562c7d166460
replacement data type 0x562c7ccb9b40
blk-set is 25
replacement data 0x562c7d166470
replacement data type 0x562c7ccb9b40
blk-set is 25
replacement data 0x562c7d166480
replacement data type 0x562c7ccb9b40
blk-set is 25
replacement data 0x562c7d166490
replacement data type 0x562c7ccb9b40
blk-set is 25
replacement data 0x562c7d1664a0
replacement data type 0x562c7ccb9b40
blk-set is 25
replacement data 0x562c7d1664b0
replacement data type 0x562c7ccb9b40
blk-set is 25
replacement data 0x562c7d1664c0
replacement data type 0x562c7ccb9b40
blk-set is 25
replacement data 0x562c7d1664d0
replacement data type 0x562c7ccb9b40
blk-set is 25
replacement data 0x562c7d1664e0
replacement data type 0x562c7ccb9b40
blk-set is 25
replacement data 0x562c7d1664f0
replacement data type 0x562c7ccb9b40
blk-set is 25
replacement data 0x562c7d166500
replacement data type 0x562c7ccb9b40
blk-set is 25
replacement data 0x562c7d166510
replacement data type 0x562c7ccb9b40
blk-set is 25
replacement data 0x562c7d166520
replacement data type 0x562c7ccb9b40
blk-set is 25
replacement data 0x562c7d166530
replacement data type 0x562c7ccb9b40
blk-set is 26
replacement data 0x562c7d166540
replacement data type 0x562c7ccb9b40
blk-set is 26
replacement data 0x562c7d166550
replacement data type 0x562c7ccb9b40
blk-set is 26
replacement data 0x562c7d166560
replacement data type 0x562c7ccb9b40
blk-set is 26
replacement data 0x562c7d166570
replacement data type 0x562c7ccb9b40
blk-set is 26
replacement data 0x562c7d166580
replacement data type 0x562c7ccb9b40
blk-set is 26
replacement data 0x562c7d166590
replacement data type 0x562c7ccb9b40
blk-set is 26
replacement data 0x562c7d1665a0
replacement data type 0x562c7ccb9b40
blk-set is 26
replacement data 0x562c7d1665b0
replacement data type 0x562c7ccb9b40
blk-set is 26
replacement data 0x562c7d1665c0
replacement data type 0x562c7ccb9b40
blk-set is 26
replacement data 0x562c7d1665d0
replacement data type 0x562c7ccb9b40
blk-set is 26
replacement data 0x562c7d1665e0
replacement data type 0x562c7ccb9b40
blk-set is 26
replacement data 0x562c7d1665f0
replacement data type 0x562c7ccb9b40
blk-set is 26
replacement data 0x562c7d166600
replacement data type 0x562c7ccb9b40
blk-set is 26
replacement data 0x562c7d166610
replacement data type 0x562c7ccb9b40
blk-set is 26
replacement data 0x562c7d166620
replacement data type 0x562c7ccb9b40
blk-set is 26
replacement data 0x562c7d166630
replacement data type 0x562c7ccb9b40
blk-set is 27
replacement data 0x562c7d166640
replacement data type 0x562c7ccb9b40
blk-set is 27
replacement data 0x562c7d166650
replacement data type 0x562c7ccb9b40
blk-set is 27
replacement data 0x562c7d166660
replacement data type 0x562c7ccb9b40
blk-set is 27
replacement data 0x562c7d166670
replacement data type 0x562c7ccb9b40
blk-set is 27
replacement data 0x562c7d166680
replacement data type 0x562c7ccb9b40
blk-set is 27
replacement data 0x562c7d166690
replacement data type 0x562c7ccb9b40
blk-set is 27
replacement data 0x562c7d1666a0
replacement data type 0x562c7ccb9b40
blk-set is 27
replacement data 0x562c7d1666b0
replacement data type 0x562c7ccb9b40
blk-set is 27
replacement data 0x562c7d1666c0
replacement data type 0x562c7ccb9b40
blk-set is 27
replacement data 0x562c7d1666d0
replacement data type 0x562c7ccb9b40
blk-set is 27
replacement data 0x562c7d1666e0
replacement data type 0x562c7ccb9b40
blk-set is 27
replacement data 0x562c7d1666f0
replacement data type 0x562c7ccb9b40
blk-set is 27
replacement data 0x562c7d166700
replacement data type 0x562c7ccb9b40
blk-set is 27
replacement data 0x562c7d166710
replacement data type 0x562c7ccb9b40
blk-set is 27
replacement data 0x562c7d166720
replacement data type 0x562c7ccb9b40
blk-set is 27
replacement data 0x562c7d166730
replacement data type 0x562c7ccb9b40
blk-set is 28
replacement data 0x562c7d166740
replacement data type 0x562c7ccb9b40
blk-set is 28
replacement data 0x562c7d166750
replacement data type 0x562c7ccb9b40
blk-set is 28
replacement data 0x562c7d166760
replacement data type 0x562c7ccb9b40
blk-set is 28
replacement data 0x562c7d166770
replacement data type 0x562c7ccb9b40
blk-set is 28
replacement data 0x562c7d166780
replacement data type 0x562c7ccb9b40
blk-set is 28
replacement data 0x562c7d166790
replacement data type 0x562c7ccb9b40
blk-set is 28
replacement data 0x562c7d1667a0
replacement data type 0x562c7ccb9b40
blk-set is 28
replacement data 0x562c7d1667b0
replacement data type 0x562c7ccb9b40
blk-set is 28
replacement data 0x562c7d1667c0
replacement data type 0x562c7ccb9b40
blk-set is 28
replacement data 0x562c7d1667d0
replacement data type 0x562c7ccb9b40
blk-set is 28
replacement data 0x562c7d1667e0
replacement data type 0x562c7ccb9b40
blk-set is 28
replacement data 0x562c7d1667f0
replacement data type 0x562c7ccb9b40
blk-set is 28
replacement data 0x562c7d166800
replacement data type 0x562c7ccb9b40
blk-set is 28
replacement data 0x562c7d166810
replacement data type 0x562c7ccb9b40
blk-set is 28
replacement data 0x562c7d166820
replacement data type 0x562c7ccb9b40
blk-set is 28
replacement data 0x562c7d166830
replacement data type 0x562c7ccb9b40
blk-set is 29
replacement data 0x562c7d166840
replacement data type 0x562c7ccb9b40
blk-set is 29
replacement data 0x562c7d166850
replacement data type 0x562c7ccb9b40
blk-set is 29
replacement data 0x562c7d166860
replacement data type 0x562c7ccb9b40
blk-set is 29
replacement data 0x562c7d166870
replacement data type 0x562c7ccb9b40
blk-set is 29
replacement data 0x562c7d166880
replacement data type 0x562c7ccb9b40
blk-set is 29
replacement data 0x562c7d166890
replacement data type 0x562c7ccb9b40
blk-set is 29
replacement data 0x562c7d1668a0
replacement data type 0x562c7ccb9b40
blk-set is 29
replacement data 0x562c7d1668b0
replacement data type 0x562c7ccb9b40
blk-set is 29
replacement data 0x562c7d1668c0
replacement data type 0x562c7ccb9b40
blk-set is 29
replacement data 0x562c7d1668d0
replacement data type 0x562c7ccb9b40
blk-set is 29
replacement data 0x562c7d1668e0
replacement data type 0x562c7ccb9b40
blk-set is 29
replacement data 0x562c7d1668f0
replacement data type 0x562c7ccb9b40
blk-set is 29
replacement data 0x562c7d166900
replacement data type 0x562c7ccb9b40
blk-set is 29
replacement data 0x562c7d166910
replacement data type 0x562c7ccb9b40
blk-set is 29
replacement data 0x562c7d166920
replacement data type 0x562c7ccb9b40
blk-set is 29
replacement data 0x562c7d166930
replacement data type 0x562c7ccb9b40
blk-set is 30
replacement data 0x562c7d166940
replacement data type 0x562c7ccb9b40
blk-set is 30
replacement data 0x562c7d166950
replacement data type 0x562c7ccb9b40
blk-set is 30
replacement data 0x562c7d166960
replacement data type 0x562c7ccb9b40
blk-set is 30
replacement data 0x562c7d166970
replacement data type 0x562c7ccb9b40
blk-set is 30
replacement data 0x562c7d166980
replacement data type 0x562c7ccb9b40
blk-set is 30
replacement data 0x562c7d166990
replacement data type 0x562c7ccb9b40
blk-set is 30
replacement data 0x562c7d1669a0
replacement data type 0x562c7ccb9b40
blk-set is 30
replacement data 0x562c7d1669b0
replacement data type 0x562c7ccb9b40
blk-set is 30
replacement data 0x562c7d1669c0
replacement data type 0x562c7ccb9b40
blk-set is 30
replacement data 0x562c7d1669d0
replacement data type 0x562c7ccb9b40
blk-set is 30
replacement data 0x562c7d1669e0
replacement data type 0x562c7ccb9b40
blk-set is 30
replacement data 0x562c7d1669f0
replacement data type 0x562c7ccb9b40
blk-set is 30
replacement data 0x562c7d166a00
replacement data type 0x562c7ccb9b40
blk-set is 30
replacement data 0x562c7d166a10
replacement data type 0x562c7ccb9b40
blk-set is 30
replacement data 0x562c7d166a20
replacement data type 0x562c7ccb9b40
blk-set is 30
replacement data 0x562c7d166a30
replacement data type 0x562c7ccb9b40
blk-set is 31
replacement data 0x562c7d166a40
replacement data type 0x562c7ccb9b40
blk-set is 31
replacement data 0x562c7d166a50
replacement data type 0x562c7ccb9b40
blk-set is 31
replacement data 0x562c7d166a60
replacement data type 0x562c7ccb9b40
blk-set is 31
replacement data 0x562c7d166a70
replacement data type 0x562c7ccb9b40
blk-set is 31
replacement data 0x562c7d166a80
replacement data type 0x562c7ccb9b40
blk-set is 31
replacement data 0x562c7d166a90
replacement data type 0x562c7ccb9b40
blk-set is 31
replacement data 0x562c7d166aa0
replacement data type 0x562c7ccb9b40
blk-set is 31
replacement data 0x562c7d166ab0
replacement data type 0x562c7ccb9b40
blk-set is 31
replacement data 0x562c7d166ac0
replacement data type 0x562c7ccb9b40
blk-set is 31
replacement data 0x562c7d166ad0
replacement data type 0x562c7ccb9b40
blk-set is 31
replacement data 0x562c7d166ae0
replacement data type 0x562c7ccb9b40
blk-set is 31
replacement data 0x562c7d166af0
replacement data type 0x562c7ccb9b40
blk-set is 31
replacement data 0x562c7d166b00
replacement data type 0x562c7ccb9b40
blk-set is 31
replacement data 0x562c7d166b10
replacement data type 0x562c7ccb9b40
blk-set is 31
replacement data 0x562c7d166b20
replacement data type 0x562c7ccb9b40
blk-set is 31
**** REAL SIMULATION ****

Sorting 10000 elements.

youth
youth
youth
youth
youth
youth
youth
youth
youth
youth
youth
youth
youth
youth
youth
youth
youth
youth
youth
youth
youth
youth
youth
youth
youth
youth
youth
youth
youth
youth
yourself
yourself
yourself
yourself
yourself
yourself
yourself
yourself
yourself
yourself
yourself
yourself
yourself
yourself
yourself
yourself
yourself
yourself
yourself
yourself
yourself
yourself
yourself
yourself
yourself
yourself
yourself
yourself
yourself
yourself
yourself
yourself
yourself
yourself
yourself
yourself
yourself
yourself
yourself
yourself
yourself
yourself
yourself
yourself
yourself
yourself
yourself
yourself
yourself
yourself
yourself
yourself
yourself
yourself
yourself
yourself
yourself
yourself
yourself
yourself
yours
yours
yours
yours
yours
yours
yours
yours
yours
yours
yours
yours
yours
yours
yours
youre
youre
youre
youre
youre
youre
youre
youre
youre
youre
youre
youre
youre
youre
youre
youre
youre
youre
youre
youre
youre
youre
youre
youre
youre
youre
youre
youre
youre
youre
youre
youre
youre
youre
youre
youre
youre
youre
youre
youre
youre
youre
youre
youre
your
your
your
your
your
your
your
your
your
your
your
your
your
your
your
your
your
your
your
your
your
your
your
your
your
your
your
your
your
your
your
your
your
your
your
your
your
your
your
your
your
your
your
your
your
your
your
your
your
your
your
your
your
your
your
your
your
your
your
your
your
your
your
your
your
your
your
your
your
your
your
your
your
your
your
your
your
your
your
your
your
your
your
your
your
your
your
your
your
your
your
your
your
your
your
your
your
your
your
your
your
your
your
your
your
your
your
your
your
your
your
your
your
your
your
your
your
your
your
your
your
your
your
your
your
your
your
your
your
your
your
your
your
your
your
your
your
your
your
your
your
your
your
your
your
your
your
your
your
your
your
your
your
your
your
your
your
your
your
your
your
your
your
your
your
your
your
your
your
your
your
your
your
your
your
your
your
your
your
your
your
your
your
your
your
your
your
your
your
your
your
your
your
your
your
your
your
your
your
your
your
your
your
your
your
your
your
your
your
your
your
your
your
your
your
your
your
your
your
your
your
your
your
your
your
your
your
your
your
your
your
your
your
your
your
your
your
your
your
your
your
your
your
your
your
your
your
your
your
your
your
your
your
your
your
your
your
your
your
your
your
your
your
your
your
your
your
your
young
young
young
young
young
young
young
young
young
young
young
young
young
young
young
young
young
young
young
young
young
young
young
young
young
young
young
young
youll
youll
youll
youll
youll
youll
youll
youll
youll
youll
youll
youll
youll
youll
youll
youll
youll
youll
youll
youll
youll
youll
youll
youll
youll
youll
youll
youll
youll
youll
youll
youll
youll
youll
youll
youll
youll
youll
youll
youll
youll
youll
youll
youll
youll
youll
youll
youll
youll
youll
youll
youll
youll
youll
youll
youll
youll
youll
youll
youll
youll
youll
youll
youll
youll
youll
youll
youll
youll
youll
youll
youll
youll
youll
youll
youll
youll
youll
youll
youll
youll
youll
youll
youll
youll
youll
youll
youll
youll
youll
youll
youll
youll
youll
youll
youll
youll
youll
youll
youll
youll
youll
youll
youll
youll
youll
youll
youll
youll
youll
youll
youll
youll
youll
youll
youll
youll
youll
you
you
you
you
you
you
you
you
you
you
you
you
you
you
you
you
you
you
you
you
you
you
you
you
you
you
you
you
you
you
you
you
you
you
you
you
you
you
you
you
you
you
you
you
you
you
you
you
you
you
you
you
you
you
you
you
you
you
you
you
you
you
you
you
you
you
you
you
you
you
you
you
you
you
you
you
you
you
you
you
you
you
you
you
you
you
you
you
you
you
you
you
you
you
you
you
you
you
you
you
you
you
you
you
you
you
you
you
you
you
you
you
you
you
you
you
you
you
you
you
you
you
you
you
you
you
you
you
you
you
you
you
you
you
you
you
you
you
you
you
you
you
you
you
you
you
you
you
you
you
you
you
you
you
you
you
you
you
you
you
you
you
you
you
you
you
you
you
you
you
you
you
you
you
you
you
you
you
you
you
you
you
you
you
you
you
you
you
you
you
you
you
you
you
you
you
you
you
you
you
you
you
you
you
you
you
you
you
you
you
you
you
you
you
you
you
you
you
you
you
you
you
you
you
you
you
you
you
you
you
you
you
you
you
you
you
you
you
you
you
you
you
you
you
you
you
you
you
you
you
you
you
you
you
you
you
you
you
you
you
you
you
you
you
you
you
you
you
you
you
you
you
you
you
you
you
you
you
you
you
you
you
you
you
you
you
you
you
you
you
you
you
you
you
you
you
you
you
you
you
you
you
you
you
you
you
you
you
you
you
you
you
you
you
you
you
you
you
you
you
you
you
you
you
you
you
you
you
you
you
you
you
you
you
you
you
you
you
you
you
you
you
you
you
you
you
you
you
you
you
you
you
you
you
you
you
you
you
you
you
you
you
you
you
you
you
you
you
you
you
you
you
you
you
you
you
you
you
you
you
you
you
you
you
you
you
you
you
you
you
you
you
you
you
you
you
you
you
you
you
you
you
you
you
you
you
you
you
you
you
you
you
you
you
you
you
you
you
you
you
you
you
you
you
you
you
you
you
you
you
you
you
you
you
you
you
you
you
you
you
you
you
you
you
you
you
you
you
you
you
you
you
you
you
you
you
you
you
you
you
you
you
you
you
you
you
years
years
years
years
years
years
years
years
years
years
years
years
years
years
years
would
would
would
would
would
would
would
would
would
would
would
would
would
would
would
worth
worth
worth
worth
worth
worth
worth
worth
worth
worth
worth
worth
worth
worth
worrying
worrying
worrying
worrying
worrying
worrying
worrying
worrying
worrying
worrying
worrying
worrying
worrying
worrying
worrying
worry
worry
worry
worry
worry
worry
worry
worry
worry
worry
worry
worry
worry
worry
worry
worry
worry
worry
worry
worry
worry
worry
worry
worry
worry
worry
worry
worry
worry
worry
worried
worried
worried
worried
worried
worried
worried
worried
worried
worried
worried
worried
worried
worried
worried
wont
wont
wont
wont
wont
wont
wont
wont
wont
wont
wont
wont
wont
wont
wont
wont
wont
wont
wont
wont
wont
wont
wont
wont
wont
wont
wont
wont
wont
wont
with
with
with
with
with
with
with
with
with
with
with
with
with
with
with
with
with
with
with
with
with
with
with
with
with
with
with
with
with
with
with
with
with
with
with
with
with
with
with
with
with
with
with
with
with
with
with
with
with
with
with
with
with
with
with
with
with
with
with
with
with
with
with
with
with
with
with
with
with
with
with
with
with
with
with
with
with
with
with
with
with
with
with
with
with
with
with
with
with
with
with
with
with
with
with
with
with
with
with
with
with
with
with
with
with
with
with
with
with
with
with
with
with
with
with
with
with
with
with
with
with
with
with
with
with
with
with
with
with
with
with
with
with
with
with
with
with
with
with
with
with
with
with
with
with
with
wiping
wiping
wiping
wiping
wiping
wiping
wiping
wiping
wiping
wiping
wiping
wiping
wiping
wiping
will
will
will
will
will
will
will
will
will
will
will
will
will
will
will
will
will
will
will
will
will
will
will
will
will
will
will
will
will
will
will
will
will
will
will
will
will
will
will
will
will
will
will
will
will
will
will
will
will
will
will
will
will
will
will
will
will
will
will
will
will
will
will
will
will
will
will
will
will
will
will
will
will
will
will
will
will
will
will
will
will
will
will
will
will
will
will
will
will
will
will
will
will
will
will
will
will
will
will
will
will
whose
whose
whose
whose
whose
whose
whose
whose
whose
whose
whose
whose
whose
whose
who
who
who
who
who
who
who
who
who
who
who
who
who
who
who
who
who
who
who
who
who
who
who
who
who
who
who
who
who
who
who
who
who
who
who
who
who
who
who
who
who
who
who
whereas
whereas
whereas
whereas
whereas
whereas
whereas
whereas
whereas
whereas
whereas
whereas
whereas
whereas
whereas
when
when
when
when
when
when
when
when
when
when
when
when
when
when
when
when
when
when
when
when
when
when
when
when
when
when
when
when
when
when
when
when
when
when
when
when
when
when
when
when
when
when
when
when
when
when
when
when
when
when
when
when
when
when
when
when
when
when
when
when
when
when
when
when
when
when
when
when
when
when
when
when
when
when
when
when
when
when
when
when
when
when
when
when
when
when
what
what
what
what
what
what
what
what
what
what
what
what
what
what
what
what
what
what
what
what
what
what
what
what
what
what
what
what
what
what
what
what
what
what
what
what
what
what
what
what
what
what
what
what
what
were
were
were
were
were
were
were
were
were
were
were
were
were
were
were
were
were
were
were
were
were
were
were
were
were
were
were
were
were
were
were
were
were
were
were
were
were
were
were
were
were
were
were
were
were
were
were
were
were
were
were
were
were
were
were
were
wedding
wedding
wedding
wedding
wedding
wedding
wedding
wedding
wedding
wedding
wedding
wedding
wedding
wedding
wedding
wealthy
wealthy
wealthy
wealthy
wealthy
wealthy
wealthy
wealthy
wealthy
wealthy
wealthy
wealthy
wealthy
wealthy
way
way
way
way
way
way
way
way
way
way
way
way
way
way
way
way
way
way
way
way
way
way
way
way
way
way
way
way
way
way
way
way
way
way
way
way
way
way
way
way
way
way
way
way
waste
waste
waste
waste
waste
waste
waste
waste
waste
waste
waste
waste
waste
waste
waste
wanted
wanted
wanted
wanted
wanted
wanted
wanted
wanted
wanted
wanted
wanted
wanted
wanted
wanted
wanted
want
want
want
want
want
want
want
want
want
want
want
want
want
want
want
up
up
up
up
up
up
up
up
up
up
up
up
up
up
up
until
until
until
until
until
until
until
until
until
until
until
until
until
until
until
understand
understand
understand
understand
understand
understand
understand
understand
understand
understand
understand
understand
understand
understand
understand
ugly
ugly
ugly
ugly
ugly
ugly
ugly
ugly
ugly
ugly
ugly
ugly
ugly
ugly
ugly
ugly
ugly
ugly
ugly
ugly
ugly
ugly
ugly
ugly
ugly
ugly
ugly
ugly
ugly
trying
trying
trying
trying
trying
trying
trying
trying
trying
trying
trying
trying
trying
trying
trying
truths
truths
truths
truths
truths
truths
truths
truths
truths
truths
truths
truths
truths
truths
trust
trust
trust
trust
trust
trust
trust
trust
trust
trust
trust
trust
trust
trust
trust
trust
trust
trust
trust
trust
trust
trust
trust
trust
trust
trust
trust
trust
trust
trust
trust
trust
trust
trust
trust
trust
trust
trust
trust
trust
trust
trust
trust
troubles
troubles
troubles
troubles
troubles
troubles
troubles
troubles
troubles
troubles
troubles
troubles
troubles
troubles
troubles
too
too
too
too
too
too
too
too
too
too
too
too
too
too
too
too
too
too
too
too
too
too
too
too
too
too
too
too
too
too
too
too
too
too
too
too
too
too
too
too
too
too
too
to
to
to
to
to
to
to
to
to
to
to
to
to
to
to
to
to
to
to
to
to
to
to
to
to
to
to
to
to
to
to
to
to
to
to
to
to
to
to
to
to
to
to
to
to
to
to
to
to
to
to
to
to
to
to
to
to
to
to
to
to
to
to
to
to
to
to
to
to
to
to
to
to
to
to
to
to
to
to
to
to
to
to
to
to
to
to
to
to
to
to
to
to
to
to
to
to
to
to
to
to
to
to
to
to
to
to
to
to
to
to
to
to
to
to
to
to
to
to
to
to
to
to
to
to
to
to
to
to
to
to
to
to
to
to
to
to
to
to
to
to
to
to
to
to
to
to
to
to
to
to
to
to
to
to
to
to
to
to
to
to
to
to
to
to
to
to
to
to
to
to
to
to
to
to
to
to
to
tip
tip
tip
tip
tip
tip
tip
tip
tip
tip
tip
tip
tip
tip
tip
time
time
time
time
time
time
time
time
time
time
time
time
time
time
time
time
time
time
time
time
time
time
time
time
time
time
time
time
time
those
those
those
those
those
those
those
those
those
those
those
those
those
those
this
this
this
this
this
this
this
this
this
this
this
this
this
this
this
this
this
this
this
this
this
this
this
this
this
this
this
this
this
this
think
think
think
think
think
think
think
think
think
think
think
think
think
think
think
things
things
things
things
things
things
things
things
things
things
things
things
things
things
things
thing
thing
thing
thing
thing
thing
thing
thing
thing
thing
thing
thing
thing
thing
thing
theyve
theyve
theyve
theyve
theyve
theyve
theyve
theyve
theyve
theyve
theyve
theyve
theyve
theyve
theyve
theyre
theyre
theyre
theyre
theyre
theyre
theyre
theyre
theyre
theyre
theyre
theyre
theyre
theyre
theyre
theyll
theyll
theyll
theyll
theyll
theyll
theyll
theyll
theyll
theyll
theyll
theyll
theyll
theyll
theyll
they
they
they
they
they
they
they
they
they
they
they
they
they
they
they
them
them
them
them
them
them
them
them
them
them
them
them
them
them
them
them
them
them
them
them
them
them
them
them
them
them
them
them
them
them
their
their
their
their
their
their
their
their
their
their
their
their
their
their
their
their
their
their
their
their
their
their
their
their
their
their
their
their
their
the
the
the
the
the
the
the
the
the
the
the
the
the
the
the
the
the
the
the
the
the
the
the
the
the
the
the
the
the
the
the
the
the
the
the
the
the
the
the
the
the
the
the
the
the
the
the
the
the
the
the
the
the
the
the
the
the
the
the
the
the
the
the
the
the
the
the
the
the
the
the
the
the
the
the
the
the
the
the
the
the
the
the
the
the
the
the
the
the
the
the
the
the
the
the
the
the
the
the
the
the
the
the
the
the
the
the
the
the
the
the
the
the
the
the
the
the
the
the
the
the
the
the
the
the
the
the
the
the
the
the
the
the
the
the
the
the
the
the
the
the
the
the
the
the
the
the
the
the
the
the
the
the
the
the
the
the
the
the
the
the
the
the
the
the
the
the
the
the
the
the
the
the
the
the
the
the
the
the
the
the
the
the
the
the
the
the
the
the
the
the
the
the
the
the
the
the
the
the
the
the
the
the
the
the
the
the
the
the
the
the
the
the
the
the
the
the
the
the
the
the
the
the
the
the
the
the
the
the
the
the
the
the
the
the
the
the
the
the
the
the
the
the
the
the
the
the
the
the
the
the
the
the
the
the
the
the
the
the
the
the
the
the
the
the
the
the
the
the
the
the
the
the
the
the
the
the
the
the
the
the
the
the
the
the
the
the
the
the
the
the
the
the
the
the
the
the
the
the
the
the
the
the
the
the
the
the
the
the
the
the
the
the
the
the
the
the
the
the
the
the
the
the
the
the
the
the
the
the
the
the
the
the
the
the
the
the
the
the
the
the
the
the
the
the
the
the
the
the
the
that
that
that
that
that
that
that
that
that
that
that
that
that
that
that
that
that
that
that
that
that
that
that
that
that
that
that
that
that
that
that
that
that
that
that
that
that
that
that
that
that
that
that
that
that
that
that
that
that
that
that
that
that
that
that
that
that
that
that
that
that
that
that
that
that
that
that
that
that
that
that
that
that
that
that
that
that
that
that
that
that
that
that
that
that
that
that
that
than
than
than
than
than
than
than
than
than
than
than
than
than
than
than
than
than
than
than
than
than
than
than
than
than
than
than
than
than
tell
tell
tell
tell
tell
tell
tell
tell
tell
tell
tell
tell
tell
tell
tell
support
support
support
support
support
support
support
support
support
support
support
support
support
support
supply
supply
supply
supply
supply
supply
supply
supply
supply
supply
supply
supply
supply
supply
sunscreen
sunscreen
sunscreen
sunscreen
sunscreen
sunscreen
sunscreen
sunscreen
sunscreen
sunscreen
sunscreen
sunscreen
sunscreen
sunscreen
sunscreen
sunscreen
sunscreen
sunscreen
sunscreen
sunscreen
sunscreen
sunscreen
sunscreen
sunscreen
sunscreen
sunscreen
sunscreen
sunscreen
sunscreen
sunscreen
sunscreen
sunscreen
sunscreen
sunscreen
sunscreen
sunscreen
sunscreen
sunscreen
sunscreen
sunscreen
sunscreen
sunscreen
sunscreen
sunscreen
sunscreen
sunscreen
sunscreen
sunscreen
sunscreen
sunscreen
sunscreen
sunscreen
sunscreen
sunscreen
sunscreen
sunscreen
sunscreen
sunscreen
sunscreen
succeed
succeed
succeed
succeed
succeed
succeed
succeed
succeed
succeed
succeed
succeed
succeed
succeed
succeed
succeed
still
still
still
still
still
still
still
still
still
still
still
still
still
still
still
stick
stick
stick
stick
stick
stick
stick
stick
stick
stick
stick
stick
stick
stick
statements
statements
statements
statements
statements
statements
statements
statements
statements
statements
statements
statements
statements
statements
statements
spouse
spouse
spouse
spouse
spouse
spouse
spouse
spouse
spouse
spouse
spouse
spouse
spouse
spouse
sometimes
sometimes
sometimes
sometimes
sometimes
sometimes
sometimes
sometimes
sometimes
sometimes
sometimes
sometimes
sometimes
sometimes
sometimes
some
some
some
some
some
some
some
some
some
some
some
some
some
some
some
solve
solve
solve
solve
solve
solve
solve
solve
solve
solve
solve
solve
solve
solve
solve
soft
soft
soft
soft
soft
soft
soft
soft
soft
soft
soft
soft
soft
soft
siblings
siblings
siblings
siblings
siblings
siblings
siblings
siblings
siblings
siblings
siblings
siblings
siblings
siblings
siblings
should
should
should
should
should
should
should
should
should
should
should
should
should
should
scientists
scientists
scientists
scientists
scientists
scientists
scientists
scientists
scientists
scientists
scientists
scientists
scientists
scientists
scientists
scares
scares
scares
scares
scares
scares
scares
scares
scares
scares
scares
scares
scares
scares
scares
run
run
run
run
run
run
run
run
run
run
run
run
run
run
room
room
room
room
room
room
room
room
room
room
room
room
room
room
room
rise
rise
rise
rise
rise
rise
rise
rise
rise
rise
rise
rise
rise
rise
rest
rest
rest
rest
rest
rest
rest
rest
rest
rest
rest
rest
rest
rest
rest
respected
respected
respected
respected
respected
respected
respected
respected
respected
respected
respected
respected
respected
respected
reliable
reliable
reliable
reliable
reliable
reliable
reliable
reliable
reliable
reliable
reliable
reliable
reliable
reliable
reliable
recycling
recycling
recycling
recycling
recycling
recycling
recycling
recycling
recycling
recycling
recycling
recycling
recycling
recycling
reckless
reckless
reckless
reckless
reckless
reckless
reckless
reckless
reckless
reckless
reckless
reckless
reckless
reckless
reckless
reckless
reckless
reckless
reckless
reckless
reckless
reckless
reckless
reckless
reckless
reckless
reckless
reckless
reckless
reckless
receive
receive
receive
receive
receive
receive
receive
receive
receive
receive
receive
receive
receive
receive
receive
recall
recall
recall
recall
recall
recall
recall
recall
recall
recall
recall
recall
recall
recall
recall
reasonable
reasonable
reasonable
reasonable
reasonable
reasonable
reasonable
reasonable
reasonable
reasonable
reasonable
reasonable
reasonable
reasonable
really
really
really
really
really
really
really
really
really
really
really
really
really
really
really
real
real
real
real
real
real
real
real
real
real
real
real
real
real
real
read
read
read
read
read
read
read
read
read
read
read
read
read
read
read
race
race
race
race
race
race
race
race
race
race
race
race
race
race
race
put
put
put
put
put
put
put
put
put
put
put
put
put
put
put
proved
proved
proved
proved
proved
proved
proved
proved
proved
proved
proved
proved
proved
proved
proved
prices
prices
prices
prices
prices
prices
prices
prices
prices
prices
prices
prices
prices
prices
precious
precious
precious
precious
precious
precious
precious
precious
precious
precious
precious
precious
precious
precious
power
power
power
power
power
power
power
power
power
power
power
power
power
power
power
power
power
power
power
power
power
power
power
power
power
power
power
power
power
power
possibility
possibility
possibility
possibility
possibility
possibility
possibility
possibility
possibility
possibility
possibility
possibility
possibility
possibility
possibility
politicians
politicians
politicians
politicians
politicians
politicians
politicians
politicians
politicians
politicians
politicians
politicians
politicians
politicians
pm
pm
pm
pm
pm
pm
pm
pm
pm
pm
pm
pm
pm
pm
pm
plenty
plenty
plenty
plenty
plenty
plenty
plenty
plenty
plenty
plenty
plenty
plenty
plenty
plenty
plenty
photos
photos
photos
photos
photos
photos
photos
photos
photos
photos
photos
photos
photos
photos
photos
philander
philander
philander
philander
philander
philander
philander
philander
philander
philander
philander
philander
philander
philander
peoples
peoples
peoples
peoples
peoples
peoples
peoples
peoples
peoples
peoples
peoples
peoples
peoples
peoples
peoples
people
people
people
people
people
people
people
people
people
people
people
people
people
people
people
people
people
people
people
people
people
people
people
people
people
people
people
people
people
people
people
people
people
people
people
people
people
people
people
people
people
people
people
people
people
people
people
people
people
people
people
people
people
people
people
people
people
people
people
people
people
people
people
people
people
people
people
people
people
people
people
people
people
people
patient
patient
patient
patient
patient
patient
patient
patient
patient
patient
patient
patient
patient
patient
past
past
past
past
past
past
past
past
past
past
past
past
past
past
past
past
past
past
past
past
past
past
past
past
past
past
past
past
past
parts
parts
parts
parts
parts
parts
parts
parts
parts
parts
parts
parts
parts
parts
parents
parents
parents
parents
parents
parents
parents
parents
parents
parents
parents
parents
parents
parents
parents
painting
painting
painting
painting
painting
painting
painting
painting
painting
painting
painting
painting
painting
painting
own
own
own
own
own
own
own
own
own
own
own
own
own
own
own
own
own
own
own
own
own
own
own
own
own
own
own
own
own
own
over
over
over
over
over
over
over
over
over
over
over
over
over
over
out
out
out
out
out
out
out
out
out
out
out
out
out
out
other
other
other
other
other
other
other
other
other
other
other
other
other
other
other
other
other
other
other
other
other
other
other
other
other
other
other
other
other
other
or
or
or
or
or
or
or
or
or
or
or
or
or
or
or
or
or
or
or
or
or
or
or
or
or
or
or
or
or
or
or
or
or
or
or
or
or
or
or
or
or
or
or
or
only
only
only
only
only
only
only
only
only
only
only
only
only
only
only
only
only
only
only
only
only
only
only
only
only
only
only
only
only
only
only
only
only
only
only
only
only
only
only
only
only
only
only
only
only
one
one
one
one
one
one
one
one
one
one
one
one
one
one
one
one
one
one
one
one
one
one
one
one
one
one
one
one
one
one
one
one
one
one
one
one
one
one
one
one
one
one
one
one
once
once
once
once
once
once
once
once
once
once
once
once
once
once
once
once
once
once
once
once
once
once
once
once
once
once
once
once
on
on
on
on
on
on
on
on
on
on
on
on
on
on
on
on
on
on
on
on
on
on
on
on
on
on
on
on
on
on
on
on
on
on
on
on
on
on
on
on
on
on
on
on
on
on
on
on
on
on
on
on
on
on
on
on
on
on
on
on
on
on
on
on
on
on
on
on
on
on
on
on
on
older
older
older
older
older
older
older
older
older
older
older
older
older
older
old
old
old
old
old
old
old
old
old
old
old
old
old
old
old
old
old
old
old
old
old
old
old
old
old
old
old
old
old
old
old
old
old
old
old
old
old
old
old
old
old
old
old
old
offer
offer
offer
offer
offer
offer
offer
offer
offer
offer
offer
offer
offer
offer
offer
off
off
off
off
off
off
off
off
off
off
off
off
off
off
of
of
of
of
of
of
of
of
of
of
of
of
of
of
of
of
of
of
of
of
of
of
of
of
of
of
of
of
of
of
of
of
of
of
of
of
of
of
of
of
of
of
of
of
of
of
of
of
of
of
of
of
of
of
of
of
of
of
of
of
of
of
of
of
of
of
of
of
of
of
of
of
of
of
of
of
of
of
of
of
of
of
of
of
of
of
of
of
of
of
of
of
of
of
of
of
of
of
of
of
of
of
of
of
of
of
of
of
of
of
of
of
of
of
of
of
of
of
of
of
of
of
of
of
of
of
of
of
of
of
of
of
of
of
of
of
of
of
of
of
of
of
of
of
of
of
of
of
of
of
of
of
of
of
of
of
of
of
of
of
of
of
of
of
of
of
of
of
of
of
of
of
of
of
of
of
of
of
of
of
of
of
of
of
of
of
of
of
of
of
of
of
of
of
of
of
of
of
of
of
of
of
of
of
of
of
of
of
nowhere
nowhere
nowhere
nowhere
nowhere
nowhere
nowhere
nowhere
nowhere
nowhere
nowhere
nowhere
nowhere
nowhere
nowhere
now
now
now
now
now
now
now
now
now
now
now
now
now
now
now
now
now
now
now
now
now
now
now
now
now
now
now
now
now
now
not
not
not
not
not
not
not
not
not
not
not
not
not
not
not
not
not
not
not
not
not
not
not
not
not
not
not
not
not
not
not
not
not
not
not
not
not
not
not
not
not
not
not
not
not
nostalgia
nostalgia
nostalgia
nostalgia
nostalgia
nostalgia
nostalgia
nostalgia
nostalgia
nostalgia
nostalgia
nostalgia
nostalgia
nostalgia
noble
noble
noble
noble
noble
noble
noble
noble
noble
noble
noble
noble
noble
noble
no
no
no
no
no
no
no
no
no
no
no
no
no
no
no
nice
nice
nice
nice
nice
nice
nice
nice
nice
nice
nice
nice
nice
nice
nice
never
never
never
never
never
never
never
never
never
never
never
never
never
never
never
never
never
never
never
never
never
never
never
never
never
never
never
never
never
never
never
never
never
never
never
never
never
never
never
never
never
never
never
never
never
never
never
never
never
never
never
never
never
never
never
never
never
never
never
need
need
need
need
need
need
need
need
need
need
need
need
need
need
my
my
my
my
my
my
my
my
my
my
my
my
my
my
my
my
my
my
my
my
my
my
my
my
my
my
my
my
my
my
much
much
much
much
much
much
much
much
much
much
much
much
much
much
much
much
much
much
much
much
much
much
much
much
much
much
much
much
much
much
much
much
much
much
much
much
much
much
much
much
much
much
much
much
most
most
most
most
most
most
most
most
most
most
most
most
most
most
most
most
most
most
most
most
most
most
most
most
most
most
most
most
most
most
most
most
most
most
most
most
most
most
most
most
most
most
most
most
most
more
more
more
more
more
more
more
more
more
more
more
more
more
more
more
more
more
more
more
more
more
more
more
more
more
more
more
more
more
more
more
more
more
more
more
more
more
more
more
more
more
more
more
miss
miss
miss
miss
miss
miss
miss
miss
miss
miss
miss
miss
miss
miss
miss
mind
mind
mind
mind
mind
mind
mind
mind
mind
mind
mind
mind
mind
mind
mind
mind
mind
mind
mind
mind
mind
mind
mind
mind
mind
mind
mind
mind
mind
mind
might
might
might
might
might
might
might
might
might
might
might
might
might
might
mess
mess
mess
mess
mess
mess
mess
mess
mess
mess
mess
mess
mess
mess
meandering
meandering
meandering
meandering
meandering
meandering
meandering
meandering
meandering
meandering
meandering
meandering
meandering
meandering
meandering
me
me
me
me
me
me
me
me
me
me
me
me
me
me
me
me
me
me
me
me
me
me
me
me
me
me
me
me
me
me
me
me
me
me
me
me
me
me
me
me
me
me
me
me
maybe
maybe
maybe
maybe
maybe
maybe
maybe
maybe
maybe
maybe
maybe
maybe
maybe
maybe
maybe
maybe
maybe
maybe
maybe
maybe
maybe
maybe
maybe
maybe
maybe
maybe
maybe
maybe
maybe
maybe
maybe
maybe
maybe
maybe
maybe
maybe
maybe
maybe
maybe
maybe
maybe
maybe
maybe
maybe
maybe
marry
marry
marry
marry
marry
marry
marry
marry
marry
marry
marry
marry
marry
marry
marry
makes
makes
makes
makes
makes
makes
makes
makes
makes
makes
makes
makes
makes
makes
makes
makes
makes
makes
makes
makes
makes
makes
makes
makes
makes
makes
makes
makes
make
make
make
make
make
make
make
make
make
make
make
make
make
make
make
magazines
magazines
magazines
magazines
magazines
magazines
magazines
magazines
magazines
magazines
magazines
magazines
magazines
magazines
magazines
love
love
love
love
love
love
love
love
love
love
love
love
love
love
love
looked
looked
looked
looked
looked
looked
looked
looked
looked
looked
looked
looked
looked
looked
looked
look
look
look
look
look
look
look
look
look
look
look
look
look
look
look
look
look
look
look
look
look
look
look
look
look
look
look
look
look
longterm
longterm
longterm
longterm
longterm
longterm
longterm
longterm
longterm
longterm
longterm
longterm
longterm
longterm
longterm
long
long
long
long
long
long
long
long
long
long
long
long
long
long
long
living
living
living
living
living
living
living
living
living
living
living
living
living
living
living
lives
lives
lives
lives
lives
lives
lives
lives
lives
lives
lives
lives
lives
lives
lives
link
link
link
link
link
link
link
link
link
link
link
link
link
link
link
likely
likely
likely
likely
likely
likely
likely
likely
likely
likely
likely
likely
likely
likely
likely
lifestyle
lifestyle
lifestyle
lifestyle
lifestyle
lifestyle
lifestyle
lifestyle
lifestyle
lifestyle
lifestyle
lifestyle
lifestyle
lifestyle
life
life
life
life
life
life
life
life
life
life
life
life
life
life
life
life
life
life
life
life
life
life
life
life
life
life
life
life
life
life
letters
letters
letters
letters
letters
letters
letters
letters
letters
letters
letters
letters
letters
letters
letters
leave
leave
leave
leave
leave
leave
leave
leave
leave
leave
leave
leave
leave
leave
leave
leave
leave
leave
leave
leave
leave
leave
leave
leave
leave
leave
leave
leave
lay
lay
lay
lay
lay
lay
lay
lay
lay
lay
lay
lay
lay
lay
lay
know
know
know
know
know
know
know
know
know
know
know
know
know
know
know
know
know
know
know
know
know
know
know
know
know
know
know
know
know
know
know
know
know
know
know
know
know
know
know
know
know
know
know
know
know
know
know
know
know
know
know
know
know
know
know
know
know
know
know
know
know
know
know
know
know
know
know
know
know
know
know
know
know
know
know
know
know
know
know
know
know
know
know
know
know
know
know
know
know
know
know
know
know
know
know
know
know
know
know
know
know
know
know
know
know
know
know
know
know
know
know
know
know
know
know
know
know
know
know
knew
knew
knew
knew
knew
[...]
geography
geography
geography
geography
geography
geography
geography
geography
geography
geography
geography
geography
geography
gentlemen
gentlemen
gentlemen
gentlemen
gentlemen
gentlemen
gentlemen
gentlemen
gentlemen
gentlemen
gentlemen
gentlemen
gentlemen
gentlemen
gentlemen
gaps
gaps
gaps
gaps
gaps
gaps
gaps
gaps
gaps
gaps
gaps
gaps
gaps
gaps
future
future
future
future
future
future
future
future
future
future
future
future
future
future
future
future
future
future
future
future
future
future
future
future
future
future
future
future
future
future
future
future
future
future
future
future
future
future
future
future
future
future
future
future
funky
funky
funky
funky
funky
funky
funky
funky
funky
funky
funky
funky
funky
funky
funky
fund
fund
fund
fund
fund
fund
fund
fund
fund
fund
fund
fund
fund
fund
from
from
from
from
from
from
from
from
from
from
from
from
from
from
friends
friends
friends
friends
friends
friends
friends
friends
friends
friends
friends
friends
friends
friends
form
form
form
form
form
form
form
form
form
form
form
form
form
form
for
for
for
for
for
for
for
for
for
for
for
for
for
for
for
for
for
for
for
for
for
for
for
for
for
for
for
for
for
for
for
for
for
for
for
for
for
for
for
for
for
for
for
for
follow
follow
follow
follow
follow
follow
follow
follow
follow
follow
follow
follow
follow
follow
follow
fishing
fishing
fishing
fishing
fishing
fishing
fishing
fishing
fishing
fishing
fishing
fishing
fishing
fishing
few
few
few
few
few
few
few
few
few
few
few
few
few
few
feel
feel
feel
feel
feel
feel
feel
feel
feel
feel
feel
feel
feel
feel
feel
feel
feel
feel
feel
feel
feel
feel
feel
feel
feel
feel
feel
feel
feel
feel
fat
fat
fat
fat
fat
fat
fat
fat
fat
fat
fat
fat
fat
fat
fat
fantasize
fantasize
fantasize
fantasize
fantasize
fantasize
fantasize
fantasize
fantasize
fantasize
fantasize
fantasize
fantasize
fantasize
faded
faded
faded
faded
faded
faded
faded
faded
faded
faded
faded
faded
faded
faded
faded
fabulous
fabulous
fabulous
fabulous
fabulous
fabulous
fabulous
fabulous
fabulous
fabulous
fabulous
fabulous
fabulous
fabulous
fabulous
experience
experience
experience
experience
experience
experience
experience
experience
experience
experience
experience
experience
experience
experience
experience
expect
expect
expect
expect
expect
expect
expect
expect
expect
expect
expect
expect
expect
expect
everybody
everybody
everybody
everybody
everybody
everybody
everybody
everybody
everybody
everybody
everybody
everybody
everybody
everybody
everybody
every
every
every
every
every
every
every
every
every
every
every
every
every
every
every
every
every
every
every
every
every
every
every
every
every
every
every
every
every
every
ever
ever
ever
ever
ever
ever
ever
ever
ever
ever
ever
ever
ever
ever
ever
even
even
even
even
even
even
even
even
even
even
even
even
even
even
even
even
even
even
even
even
even
even
even
even
even
even
even
even
even
even
equation
equation
equation
equation
equation
equation
equation
equation
equation
equation
equation
equation
equation
equation
equation
end
end
end
end
end
end
end
end
end
end
end
end
end
end
end
elses
elses
elses
elses
elses
elses
elses
elses
elses
elses
elses
elses
elses
elses
elses
else
else
else
else
else
else
else
else
else
else
else
else
else
else
elders
elders
elders
elders
elders
elders
elders
elders
elders
elders
elders
elders
elders
elders
elders
elders
elders
elders
elders
elders
elders
elders
elders
elders
elders
elders
elders
elders
either
either
either
either
either
either
either
either
either
either
either
either
either
either
either
either
either
either
either
either
either
either
either
either
either
either
either
either
either
effective
effective
effective
effective
effective
effective
effective
effective
effective
effective
effective
effective
effective
effective
effective
dont
dont
dont
dont
dont
dont
dont
dont
dont
dont
dont
dont
dont
dont
dont
dont
dont
dont
dont
dont
dont
dont
dont
dont
dont
dont
dont
dont
dont
dont
dont
dont
dont
dont
dont
dont
dont
dont
dont
dont
dont
dont
dont
dont
dont
dont
dont
dont
dont
dont
dont
dont
dont
dont
dont
dont
dont
dont
dont
dont
doing
doing
doing
doing
doing
doing
doing
doing
doing
doing
doing
doing
doing
doing
doing
do
do
do
do
do
do
do
do
do
do
do
do
do
do
do
do
do
do
do
do
do
do
do
do
do
do
do
do
do
do
do
do
do
do
do
do
do
do
do
do
do
do
do
do
do
do
do
do
do
do
do
do
do
do
do
do
do
do
do
do
do
do
do
do
do
do
do
do
do
do
do
do
do
do
divorce
divorce
divorce
divorce
divorce
divorce
divorce
divorce
divorce
divorce
divorce
divorce
divorce
divorce
divorce
disposal
disposal
disposal
disposal
disposal
disposal
disposal
disposal
disposal
disposal
disposal
disposal
disposal
disposal
dispense
dispense
dispense
dispense
dispense
dispense
dispense
dispense
dispense
dispense
dispense
dispense
dispense
dispense
dispense
directions
directions
directions
directions
directions
directions
directions
directions
directions
directions
directions
directions
directions
directions
directions
didnt
didnt
didnt
didnt
didnt
didnt
didnt
didnt
didnt
didnt
didnt
didnt
didnt
didnt
didnt
day
day
day
day
day
day
day
day
day
day
day
day
day
day
day
dance
dance
dance
dance
dance
dance
dance
dance
dance
dance
dance
dance
dance
dance
dance
crossed
crossed
crossed
crossed
crossed
crossed
crossed
crossed
crossed
crossed
crossed
crossed
crossed
crossed
crossed
could
could
could
could
could
could
could
could
could
could
could
could
could
could
could
congratulate
congratulate
congratulate
congratulate
congratulate
congratulate
congratulate
congratulate
congratulate
congratulate
congratulate
congratulate
congratulate
congratulate
congratulate
compliments
compliments
compliments
compliments
compliments
compliments
compliments
compliments
compliments
compliments
compliments
compliments
compliments
compliments
compliments
come
come
come
come
come
come
come
come
come
come
come
come
come
come
class
class
class
class
class
class
class
class
class
class
class
class
class
class
class
choices
choices
choices
choices
choices
choices
choices
choices
choices
choices
choices
choices
choices
choices
choices
children
children
children
children
children
children
children
children
children
children
children
children
children
children
children
children
children
children
children
children
children
children
children
children
children
children
children
children
children
chicken
chicken
chicken
chicken
chicken
chicken
chicken
chicken
chicken
chicken
chicken
chicken
chicken
chicken
chicken
chewing
chewing
chewing
chewing
chewing
chewing
chewing
chewing
chewing
chewing
chewing
chewing
chewing
chewing
chewing
chance
chance
chance
chance
chance
chance
chance
chance
chance
chance
chance
chance
chance
chance
chance
certain
certain
certain
certain
certain
certain
certain
certain
certain
certain
certain
certain
certain
certain
careful
careful
careful
careful
careful
careful
careful
careful
careful
careful
careful
careful
careful
careful
cant
cant
cant
cant
cant
cant
cant
cant
cant
cant
cant
cant
cant
cant
cant
can
can
can
can
can
can
can
can
can
can
can
can
can
can
can
calcium
calcium
calcium
calcium
calcium
calcium
calcium
calcium
calcium
calcium
calcium
calcium
calcium
calcium
calcium
by
by
by
by
by
by
by
by
by
by
by
by
by
by
by
by
by
by
by
by
by
by
by
by
by
by
by
by
by
by
by
by
by
by
by
by
by
by
by
by
by
by
by
by
buy
buy
buy
buy
buy
buy
buy
buy
buy
buy
buy
buy
buy
buy
but
but
but
but
but
but
but
but
but
but
but
but
but
but
but
but
but
but
but
but
but
but
but
but
but
but
but
but
but
but
but
but
but
but
but
but
but
but
but
but
but
but
but
but
but
but
but
but
but
but
but
but
but
but
but
but
but
but
but
but
but
but
but
but
but
but
but
but
but
but
but
but
but
but
but
but
but
but
but
but
but
but
but
but
but
but
bubble
bubble
bubble
bubble
bubble
bubble
bubble
bubble
bubble
bubble
bubble
bubble
bubble
bubble
bubble
bridge
bridge
bridge
bridge
bridge
bridge
bridge
bridge
bridge
bridge
bridge
bridge
bridge
bridge
body
body
body
body
body
body
body
body
body
body
body
body
body
body
body
blindside
blindside
blindside
blindside
blindside
blindside
blindside
blindside
blindside
blindside
blindside
blindside
blindside
blindside
blindside
best
best
best
best
best
best
best
best
best
best
best
best
best
best
best
berate
berate
berate
berate
berate
berate
berate
berate
berate
berate
berate
berate
berate
berate
berate
benefits
benefits
benefits
benefits
benefits
benefits
benefits
benefits
benefits
benefits
benefits
benefits
benefits
benefits
benefits
behind
behind
behind
behind
behind
behind
behind
behind
behind
behind
behind
behind
behind
behind
behind
before
before
before
before
before
before
before
before
before
before
before
before
before
before
before
before
before
before
before
before
before
before
before
before
before
before
before
before
before
before
before
before
before
before
before
before
before
before
before
before
before
before
before
been
been
been
been
been
been
been
been
been
been
been
been
been
been
been
because
because
because
because
because
because
because
because
because
because
because
because
because
because
beauty
beauty
beauty
beauty
beauty
beauty
beauty
beauty
beauty
beauty
beauty
beauty
beauty
beauty
beauty
beauty
beauty
beauty
beauty
beauty
beauty
beauty
beauty
beauty
beauty
beauty
beauty
beauty
beauty
beauty
beauty
beauty
beauty
beauty
beauty
beauty
beauty
beauty
beauty
beauty
beauty
beauty
beauty
beauty
beauty
be
be
be
be
be
be
be
be
be
be
be
be
be
be
be
be
be
be
be
be
be
be
be
be
be
be
be
be
be
be
be
be
be
be
be
be
be
be
be
be
be
be
be
be
be
be
be
be
be
be
be
be
be
be
be
be
be
be
be
be
be
be
be
be
be
be
be
be
be
be
be
be
be
be
be
be
be
be
be
be
be
be
be
be
be
be
be
be
be
basis
basis
basis
basis
basis
basis
basis
basis
basis
basis
basis
basis
basis
basis
basis
bank
bank
bank
bank
bank
bank
bank
bank
bank
bank
bank
bank
bank
bank
bank
back
back
back
back
back
back
back
back
back
back
back
back
back
back
back
away
away
away
away
away
away
away
away
away
away
away
away
away
away
away
at
at
at
at
at
at
at
at
at
at
at
at
at
at
at
at
at
at
at
at
at
at
at
at
at
at
at
at
at
at
at
at
at
at
at
at
at
at
at
at
at
at
at
at
at
at
at
at
at
at
at
at
at
at
at
at
at
at
at
at
at
at
at
at
at
at
at
at
at
at
at
at
at
at
at
as
as
as
as
as
as
as
as
as
as
as
as
as
as
as
as
as
as
as
as
as
as
as
as
as
as
as
as
as
as
as
as
as
as
as
as
as
as
as
as
as
as
as
as
as
as
as
as
as
as
as
as
as
as
as
as
as
as
as
as
are
are
are
are
are
are
are
are
are
are
are
are
are
are
are
are
are
are
are
are
are
are
are
are
are
are
are
are
are
are
are
are
are
are
are
are
are
are
are
are
are
are
are
are
are
are
are
are
are
are
are
are
are
are
are
are
are
are
are
are
are
are
are
are
are
are
are
are
are
are
are
are
are
are
are
apt
apt
apt
apt
apt
apt
apt
apt
apt
apt
apt
apt
apt
apt
apt
anyone
anyone
anyone
anyone
anyone
anyone
anyone
anyone
anyone
anyone
anyone
anyone
anyone
anyone
anniversary
anniversary
anniversary
anniversary
anniversary
anniversary
anniversary
anniversary
anniversary
anniversary
anniversary
anniversary
anniversary
anniversary
anniversary
and
and
and
and
and
and
and
and
and
and
and
and
and
and
and
and
and
and
and
and
and
and
and
and
and
and
and
and
and
and
and
and
and
and
and
and
and
and
and
and
and
and
and
and
and
and
and
and
and
and
and
and
and
and
and
and
and
and
and
and
and
and
and
and
and
and
and
and
and
and
and
and
and
and
and
and
and
and
and
and
and
and
and
and
and
and
and
and
and
and
and
and
and
and
and
and
and
and
and
and
and
and
and
and
and
and
and
and
and
and
and
and
and
and
and
and
and
and
and
and
and
and
and
and
and
and
and
and
and
and
and
and
and
and
and
and
and
and
and
and
and
and
and
and
and
and
and
and
and
and
and
and
and
and
and
and
and
and
and
and
and
an
an
an
an
an
an
an
an
an
an
an
an
an
an
an
algebra
algebra
algebra
algebra
algebra
algebra
algebra
algebra
algebra
algebra
algebra
algebra
algebra
algebra
algebra
ahead
ahead
ahead
ahead
ahead
ahead
ahead
ahead
ahead
ahead
ahead
ahead
ahead
ahead
ahead
afraid
afraid
afraid
afraid
afraid
afraid
afraid
afraid
afraid
afraid
afraid
afraid
afraid
afraid
afraid
advice
advice
advice
advice
advice
advice
advice
advice
advice
advice
advice
advice
advice
advice
advice
advice
advice
advice
advice
advice
advice
advice
advice
advice
advice
advice
advice
advice
advice
advice
advice
advice
advice
advice
advice
advice
advice
advice
advice
advice
advice
advice
advice
advice
about
about
about
about
about
about
about
about
about
about
about
about
about
about
about
a
a
a
a
a
a
a
a
a
a
a
a
a
a
a
a
a
a
a
a
a
a
a
a
a
a
a
a
a
a
a
a
a
a
a
a
a
a
a
a
a
a
a
a
a
a
a
a
a
a
a
a
a
a
a
a
a
a
a
a
a
a
a
a
a
a
a
a
a
a
a
a
a
a
a
a
a
a
a
a
a
a
a
a
a
Your
Your
Your
Your
Your
Your
Your
Your
Your
Your
Your
Your
Your
Your
Your
Youll
Youll
Youll
Youll
Youll
Youll
Youll
Youll
Youll
Youll
Youll
Youll
Youll
Youll
Youll
You
You
You
You
You
You
You
You
You
You
You
You
You
You
You
You
You
You
You
You
You
You
You
You
You
You
You
You
You
You
You
You
You
You
You
You
You
You
You
You
You
You
You
You
You
You
You
You
You
You
You
You
You
You
You
You
You
You
You
York
York
York
York
York
York
York
York
York
York
York
York
York
York
Work
Work
Work
Work
Work
Work
Work
Work
Work
Work
Work
Work
Work
Work
Whatever
Whatever
Whatever
Whatever
Whatever
Whatever
Whatever
Whatever
Whatever
Whatever
Whatever
Whatever
Whatever
Whatever
Whatever
Wear
Wear
Wear
Wear
Wear
Wear
Wear
Wear
Wear
Wear
Wear
Wear
Wear
Wear
Wear
Vonneguts
Vonneguts
Vonneguts
Vonneguts
Vonneguts
Vonneguts
Vonneguts
Vonneguts
Vonneguts
Vonneguts
Vonneguts
Vonneguts
Vonneguts
Vonneguts
Vonneguts
Use
Use
Use
Use
Use
Use
Use
Use
Use
Use
Use
Use
Use
Use
Use
Understand
Understand
Understand
Understand
Understand
Understand
Understand
Understand
Understand
Understand
Understand
Understand
Understand
Understand
Tuesday
Tuesday
Tuesday
Tuesday
Tuesday
Tuesday
Tuesday
Tuesday
Tuesday
Tuesday
Tuesday
Tuesday
Tuesday
Tuesday
Tuesday
Travel
Travel
Travel
Travel
Travel
Travel
Travel
Travel
Travel
Travel
Travel
Travel
Travel
Travel
Throw
Throw
Throw
Throw
Throw
Throw
Throw
Throw
Throw
Throw
Throw
Throw
Throw
Throw
Throw
Theyre
Theyre
Theyre
Theyre
Theyre
Theyre
Theyre
Theyre
Theyre
Theyre
Theyre
Theyre
Theyre
Theyre
Theyre
They
They
They
They
They
They
They
They
They
They
They
They
They
They
They
The
The
The
The
The
The
The
The
The
The
The
The
The
The
The
The
The
The
The
The
The
The
The
The
The
The
The
The
The
The
The
The
The
The
The
The
The
The
The
The
The
The
The
The
The
The
The
The
The
The
The
The
The
The
The
The
The
The
The
The
Stretch
Stretch
Stretch
Stretch
Stretch
Stretch
Stretch
Stretch
Stretch
Stretch
Stretch
Stretch
Stretch
Stretch
Stretch
Sometimes
Sometimes
Sometimes
Sometimes
Sometimes
Sometimes
Sometimes
Sometimes
Sometimes
Sometimes
Sometimes
Sometimes
Sometimes
Sometimes
Sometimes
Some
Some
Some
Some
Some
Some
Some
Some
Some
Some
Some
Some
Some
Some
Some
So
So
So
So
So
So
So
So
So
So
So
So
So
So
So
Sing
Sing
Sing
Sing
Sing
Sing
Sing
Sing
Sing
Sing
Sing
Sing
Sing
Sing
Sing
Respect
Respect
Respect
Respect
Respect
Respect
Respect
Respect
Respect
Respect
Respect
Respect
Respect
Respect
Remember
Remember
Remember
Remember
Remember
Remember
Remember
Remember
Remember
Remember
Remember
Remember
Remember
Remember
Remember
Read
Read
Read
Read
Read
Read
Read
Read
Read
Read
Read
Read
Read
Read
Read
Prices
Prices
Prices
Prices
Prices
Prices
Prices
Prices
Prices
Prices
Prices
Prices
Prices
Prices
Politicians
Politicians
Politicians
Politicians
Politicians
Politicians
Politicians
Politicians
Politicians
Politicians
Politicians
Politicians
Politicians
Politicians
Or
Or
Or
Or
Or
Or
Or
Or
Or
Or
Or
Or
Or
Or
Or
Oh
Oh
Oh
Oh
Oh
Oh
Oh
Oh
Oh
Oh
Oh
Oh
Oh
Oh
Oh
Northern
Northern
Northern
Northern
Northern
Northern
Northern
Northern
Northern
Northern
Northern
Northern
Northern
Northern
New
New
New
New
New
New
New
New
New
New
New
New
New
New
Maybe
Maybe
Maybe
Maybe
Maybe
Maybe
Maybe
Maybe
Maybe
Maybe
Maybe
Maybe
Maybe
Maybe
Maybe
Maybe
Maybe
Maybe
Maybe
Maybe
Maybe
Maybe
Maybe
Maybe
Maybe
Maybe
Maybe
Maybe
Maybe
Maybe
Maybe
Maybe
Maybe
Maybe
Maybe
Maybe
Maybe
Maybe
Maybe
Maybe
Maybe
Maybe
Maybe
Maybe
Maybe
Maybe
Maybe
Maybe
Maybe
Maybe
Maybe
Maybe
Maybe
Maybe
Maybe
Maybe
Maybe
Maybe
Maybe
Maybe
Maybe
Maybe
Maybe
Maybe
Maybe
Maybe
Maybe
Maybe
Maybe
Maybe
Maybe
Maybe
Maybe
MIT
MIT
MIT
MIT
MIT
MIT
MIT
MIT
MIT
MIT
MIT
MIT
MIT
MIT
MIT
Live
Live
Live
Live
Live
Live
Live
Live
Live
Live
Live
Live
Live
Live
Live
Live
Live
Live
Live
Live
Live
Live
Live
Live
Live
Live
Live
Live
Ladies
Ladies
Ladies
Ladies
Ladies
Ladies
Ladies
Ladies
Ladies
Ladies
Ladies
Ladies
Ladies
Ladies
Ladies
Kurt
Kurt
Kurt
Kurt
Kurt
Kurt
Kurt
Kurt
Kurt
Kurt
Kurt
Kurt
Kurt
Kurt
Kurt
Keep
Keep
Keep
Keep
Keep
Keep
Keep
Keep
Keep
Keep
Keep
Keep
Keep
Keep
Keep
Its
Its
Its
Its
Its
Its
Its
Its
Its
Its
Its
Its
Its
Its
Its
If
If
If
If
If
If
If
If
If
If
If
If
If
If
If
If
If
If
If
If
If
If
If
If
If
If
If
If
If
If
I
I
I
I
I
I
I
I
I
I
I
I
I
I
I
I
I
I
I
I
I
I
I
I
I
I
I
I
I
I
I
I
I
I
I
I
I
I
I
I
I
I
I
I
I
I
I
I
I
I
I
I
I
I
I
I
I
I
I
I
Get
Get
Get
Get
Get
Get
Get
Get
Get
Get
Get
Get
Get
Get
Get
Get
Get
Get
Get
Get
Get
Get
Get
Get
Get
Get
Get
Get
Get
Get
Forget
Forget
Forget
Forget
Forget
Forget
Forget
Forget
Forget
Forget
Forget
Forget
Forget
Forget
Forget
Floss
Floss
Floss
Floss
Floss
Floss
Floss
Floss
Floss
Floss
Floss
Floss
Floss
Floss
Floss
Enjoy
Enjoy
Enjoy
Enjoy
Enjoy
Enjoy
Enjoy
Enjoy
Enjoy
Enjoy
Enjoy
Enjoy
Enjoy
Enjoy
Enjoy
Enjoy
Enjoy
Enjoy
Enjoy
Enjoy
Enjoy
Enjoy
Enjoy
Enjoy
Enjoy
Enjoy
Enjoy
Enjoy
Enjoy
Enjoy
Dont
Dont
Dont
Dont
Dont
Dont
Dont
Dont
Dont
Dont
Dont
Dont
Dont
Dont
Dont
Dont
Dont
Dont
Dont
Dont
Dont
Dont
Dont
Dont
Dont
Dont
Dont
Dont
Dont
Dont
Dont
Dont
Dont
Dont
Dont
Dont
Dont
Dont
Dont
Dont
Dont
Dont
Dont
Dont
Dont
Dont
Dont
Dont
Dont
Dont
Dont
Dont
Dont
Dont
Dont
Dont
Dont
Dont
Dont
Dont
Dont
Dont
Dont
Dont
Dont
Dont
Dont
Dont
Dont
Dont
Dont
Dont
Dont
Dont
Dont
Dont
Dont
Dont
Dont
Dont
Dont
Dont
Dont
Dont
Dont
Dont
Dont
Dont
Dont
Dont
Dont
Dont
Dont
Dont
Dont
Dont
Dont
Dont
Dont
Dont
Dont
Dont
Dont
Dont
Dont
Dont
Dont
Dont
Dont
Dont
Dont
Dont
Dont
Dont
Dont
Dont
Dont
Dont
Do
Do
Do
Do
Do
Do
Do
Do
Do
Do
Do
Do
Do
Do
Do
Do
Do
Do
Do
Do
Do
Do
Do
Do
Do
Do
Do
Do
Do
Do
Dispensing
Dispensing
Dispensing
Dispensing
Dispensing
Dispensing
Dispensing
Dispensing
Dispensing
Dispensing
Dispensing
Dispensing
Dispensing
Dispensing
Dance
Dance
Dance
Dance
Dance
Dance
Dance
Dance
Dance
Dance
Dance
Dance
Dance
Dance
Dance
Commencement
Commencement
Commencement
Commencement
Commencement
Commencement
Commencement
Commencement
Commencement
Commencement
Commencement
Commencement
Commencement
Commencement
Commencement
City
City
City
City
City
City
City
City
City
City
City
City
City
City
California
California
California
California
California
California
California
California
California
California
California
California
California
California
But
But
But
But
But
But
But
But
But
But
But
But
But
But
But
But
But
But
But
But
But
But
But
But
But
But
But
But
But
But
But
But
But
But
But
But
But
But
But
But
But
But
But
Be
Be
Be
Be
Be
Be
Be
Be
Be
Be
Be
Be
Be
Be
Be
Be
Be
Be
Be
Be
Be
Be
Be
Be
Be
Be
Be
Be
Be
Be
Be
Be
Be
Be
Be
Be
Be
Be
Be
Be
Be
Be
Be
Be
And
And
And
And
And
And
And
And
And
And
And
And
And
And
Advice
Advice
Advice
Advice
Advice
Advice
Advice
Advice
Advice
Advice
Advice
Advice
Advice
Advice
Address
Address
Address
Address
Address
Address
Address
Address
Address
Address
Address
Address
Address
Address
Address
Accept
Accept
Accept
Accept
Accept
Accept
Accept
Accept
Accept
Accept
Accept
Accept
Accept
Accept
97
97
97
97
97
97
97
97
97
97
97
97
97
97
97
85
85
85
85
85
85
85
85
85
85
85
85
85
85
75th
75th
75th
75th
75th
75th
75th
75th
75th
75th
75th
75th
75th
75th
75th
40yearolds
40yearolds
40yearolds
40yearolds
40yearolds
40yearolds
40yearolds
40yearolds
40yearolds
40yearolds
40yearolds
40yearolds
40yearolds
40yearolds
40yearolds
40
40
40
40
40
40
40
40
40
40
40
40
40
40
40
40
40
40
40
40
40
40
40
40
40
40
40
40
40
4
4
4
4
4
4
4
4
4
4
4
4
4
4
4
22
22
22
22
22
22
22
22
22
22
22
22
22
22
22
20
20
20
20
20
20
20
20
20
20
20
20
20
20
20
Exiting @ tick 52258924500 because exiting with last active thread context
