gem5 Simulator System.  http://gem5.org
gem5 is copyrighted software; use the --copyright option for details.

gem5 compiled Nov 18 2018 19:27:57
gem5 started Nov 18 2018 19:39:13
gem5 executing on Chinmay-Laptop, pid 2459
command line: /home/chinmaysj96/Desktop/project/gem52/gem5/build/ARM/gem5.opt -d /home/chinmaysj96/Desktop/project/gem52/gem5/p3fft-lru /home/chinmaysj96/Desktop/project/gem52/gem5/configs/example/se.py --cpu-type=TimingSimpleCPU --caches --l1d_size=1kB --l1d_assoc=4 --cacheline_size=32 --l2cache --num-l2caches=1 --l2_size=16kB --l2_assoc=16 --l1i_size=2kB --l1i_assoc=1 -c ./benchmarks/FFT/fft

Global frequency set at 1000000000000 ticks per second
base madhe ahe
replacement data 0x557fe1b69208
replacement data type 0x557fe2017a80
blk-set is 0
replacement data 0x557fe1b691d0
replacement data type 0x557fe2017a80
blk-set is 0
replacement data 0x557fe1b692c0
replacement data type 0x557fe2017a80
blk-set is 0
replacement data 0x557fe1b692c8
replacement data type 0x557fe2017a80
blk-set is 0
replacement data 0x557fe1b692d0
replacement data type 0x557fe2017a80
blk-set is 1
replacement data 0x557fe1b692d8
replacement data type 0x557fe2017a80
blk-set is 1
replacement data 0x557fe1b695b0
replacement data type 0x557fe2017a80
blk-set is 1
replacement data 0x557fe1b692e0
replacement data type 0x557fe2017a80
blk-set is 1
replacement data 0x557fe1b692e8
replacement data type 0x557fe2017a80
blk-set is 2
replacement data 0x557fe1b692f0
replacement data type 0x557fe2017a80
blk-set is 2
replacement data 0x557fe1b695c8
replacement data type 0x557fe2017a80
blk-set is 2
replacement data 0x557fe1b695d0
replacement data type 0x557fe2017a80
blk-set is 2
replacement data 0x557fe1b695e0
replacement data type 0x557fe2017a80
blk-set is 3
replacement data 0x557fe1b692f8
replacement data type 0x557fe2017a80
blk-set is 3
replacement data 0x557fe1b69300
replacement data type 0x557fe2017a80
blk-set is 3
replacement data 0x557fe1b69308
replacement data type 0x557fe2017a80
blk-set is 3
replacement data 0x557fe1b69310
replacement data type 0x557fe2017a80
blk-set is 4
replacement data 0x557fe1b69318
replacement data type 0x557fe2017a80
blk-set is 4
replacement data 0x557fe1b69320
replacement data type 0x557fe2017a80
blk-set is 4
replacement data 0x557fe1b69328
replacement data type 0x557fe2017a80
blk-set is 4
replacement data 0x557fe1b69330
replacement data type 0x557fe2017a80
blk-set is 5
replacement data 0x557fe1b69338
replacement data type 0x557fe2017a80
blk-set is 5
replacement data 0x557fe1b69340
replacement data type 0x557fe2017a80
blk-set is 5
replacement data 0x557fe1b69348
replacement data type 0x557fe2017a80
blk-set is 5
replacement data 0x557fe1b69350
replacement data type 0x557fe2017a80
blk-set is 6
replacement data 0x557fe1b69358
replacement data type 0x557fe2017a80
blk-set is 6
replacement data 0x557fe1b69360
replacement data type 0x557fe2017a80
blk-set is 6
replacement data 0x557fe1b69368
replacement data type 0x557fe2017a80
blk-set is 6
replacement data 0x557fe1b69370
replacement data type 0x557fe2017a80
blk-set is 7
replacement data 0x557fe1b69378
replacement data type 0x557fe2017a80
blk-set is 7
replacement data 0x557fe1b69380
replacement data type 0x557fe2017a80
blk-set is 7
replacement data 0x557fe1b69388
replacement data type 0x557fe2017a80
blk-set is 7
base madhe ahe
replacement data 0x557fe1b692b8
replacement data type 0x557fe2017b00
blk-set is 0
replacement data 0x557fe1b693a8
replacement data type 0x557fe2017b00
blk-set is 1
replacement data 0x557fe1b693b8
replacement data type 0x557fe2017b00
blk-set is 2
replacement data 0x557fe1b693c8
replacement data type 0x557fe2017b00
blk-set is 3
replacement data 0x557fe1b693d8
replacement data type 0x557fe2017b00
blk-set is 4
replacement data 0x557fe1b693e8
replacement data type 0x557fe2017b00
blk-set is 5
replacement data 0x557fe1b693f8
replacement data type 0x557fe2017b00
blk-set is 6
replacement data 0x557fe1b69408
replacement data type 0x557fe2017b00
blk-set is 7
replacement data 0x557fe1b69418
replacement data type 0x557fe2017b00
blk-set is 8
replacement data 0x557fe1b69428
replacement data type 0x557fe2017b00
blk-set is 9
replacement data 0x557fe1b69438
replacement data type 0x557fe2017b00
blk-set is 10
replacement data 0x557fe1b69448
replacement data type 0x557fe2017b00
blk-set is 11
replacement data 0x557fe1b69458
replacement data type 0x557fe2017b00
blk-set is 12
replacement data 0x557fe1b69468
replacement data type 0x557fe2017b00
blk-set is 13
replacement data 0x557fe1b69478
replacement data type 0x557fe2017b00
blk-set is 14
replacement data 0x557fe1b69488
replacement data type 0x557fe2017b00
blk-set is 15
replacement data 0x557fe1b69498
replacement data type 0x557fe2017b00
blk-set is 16
replacement data 0x557fe1b694a8
replacement data type 0x557fe2017b00
blk-set is 17
replacement data 0x557fe1b694b8
replacement data type 0x557fe2017b00
blk-set is 18
replacement data 0x557fe1b694c8
replacement data type 0x557fe2017b00
blk-set is 19
replacement data 0x557fe1b694d8
replacement data type 0x557fe2017b00
blk-set is 20
replacement data 0x557fe1b694e8
replacement data type 0x557fe2017b00
blk-set is 21
replacement data 0x557fe1b694f8
replacement data type 0x557fe2017b00
blk-set is 22
replacement data 0x557fe1b69508
replacement data type 0x557fe2017b00
blk-set is 23
replacement data 0x557fe1b69518
replacement data type 0x557fe2017b00
blk-set is 24
replacement data 0x557fe1b69528
replacement data type 0x557fe2017b00
blk-set is 25
replacement data 0x557fe1b69538
replacement data type 0x557fe2017b00
blk-set is 26
replacement data 0x557fe1b69548
replacement data type 0x557fe2017b00
blk-set is 27
replacement data 0x557fe1b69558
replacement data type 0x557fe2017b00
blk-set is 28
replacement data 0x557fe1b69568
replacement data type 0x557fe2017b00
blk-set is 29
replacement data 0x557fe1b69578
replacement data type 0x557fe2017b00
blk-set is 30
replacement data 0x557fe1b69588
replacement data type 0x557fe2017b00
blk-set is 31
replacement data 0x557fe1b69598
replacement data type 0x557fe2017b00
blk-set is 32
replacement data 0x557fe1b695a8
replacement data type 0x557fe2017b00
blk-set is 33
replacement data 0x557fe1b69920
replacement data type 0x557fe2017b00
blk-set is 34
replacement data 0x557fe1b69930
replacement data type 0x557fe2017b00
blk-set is 35
replacement data 0x557fe1b69940
replacement data type 0x557fe2017b00
blk-set is 36
replacement data 0x557fe1b69950
replacement data type 0x557fe2017b00
blk-set is 37
replacement data 0x557fe1b69960
replacement data type 0x557fe2017b00
blk-set is 38
replacement data 0x557fe1b69970
replacement data type 0x557fe2017b00
blk-set is 39
replacement data 0x557fe1b69980
replacement data type 0x557fe2017b00
blk-set is 40
replacement data 0x557fe1b69990
replacement data type 0x557fe2017b00
blk-set is 41
replacement data 0x557fe1b699a0
replacement data type 0x557fe2017b00
blk-set is 42
replacement data 0x557fe1b699b0
replacement data type 0x557fe2017b00
blk-set is 43
replacement data 0x557fe1b699c0
replacement data type 0x557fe2017b00
blk-set is 44
replacement data 0x557fe1b699d0
replacement data type 0x557fe2017b00
blk-set is 45
replacement data 0x557fe1b699e0
replacement data type 0x557fe2017b00
blk-set is 46
replacement data 0x557fe1b699f0
replacement data type 0x557fe2017b00
blk-set is 47
replacement data 0x557fe1b69a00
replacement data type 0x557fe2017b00
blk-set is 48
replacement data 0x557fe1b69a10
replacement data type 0x557fe2017b00
blk-set is 49
replacement data 0x557fe1b69a20
replacement data type 0x557fe2017b00
blk-set is 50
replacement data 0x557fe1b69a30
replacement data type 0x557fe2017b00
blk-set is 51
replacement data 0x557fe1b69a40
replacement data type 0x557fe2017b00
blk-set is 52
replacement data 0x557fe1b69a50
replacement data type 0x557fe2017b00
blk-set is 53
replacement data 0x557fe1b69a60
replacement data type 0x557fe2017b00
blk-set is 54
replacement data 0x557fe1b69a70
replacement data type 0x557fe2017b00
blk-set is 55
replacement data 0x557fe1b69a80
replacement data type 0x557fe2017b00
blk-set is 56
replacement data 0x557fe1b69a90
replacement data type 0x557fe2017b00
blk-set is 57
replacement data 0x557fe1b69aa0
replacement data type 0x557fe2017b00
blk-set is 58
replacement data 0x557fe1b69ab0
replacement data type 0x557fe2017b00
blk-set is 59
replacement data 0x557fe1b69ac0
replacement data type 0x557fe2017b00
blk-set is 60
replacement data 0x557fe1b69ad0
replacement data type 0x557fe2017b00
blk-set is 61
replacement data 0x557fe1b69ae0
replacement data type 0x557fe2017b00
blk-set is 62
replacement data 0x557fe1b69af0
replacement data type 0x557fe2017b00
blk-set is 63
base madhe ahe
replacement data 0x557fe1b69390
replacement data type 0x557fe2017ac0
blk-set is 0
replacement data 0x557fe1b69398
replacement data type 0x557fe2017ac0
blk-set is 0
replacement data 0x557fe1b69b08
replacement data type 0x557fe2017ac0
blk-set is 0
replacement data 0x557fe1b69b10
replacement data type 0x557fe2017ac0
blk-set is 0
replacement data 0x557fe1b69b18
replacement data type 0x557fe2017ac0
blk-set is 0
replacement data 0x557fe1b69b20
replacement data type 0x557fe2017ac0
blk-set is 0
replacement data 0x557fe1b69b28
replacement data type 0x557fe2017ac0
blk-set is 0
replacement data 0x557fe1b69b30
replacement data type 0x557fe2017ac0
blk-set is 0
replacement data 0x557fe1b69b38
replacement data type 0x557fe2017ac0
blk-set is 0
replacement data 0x557fe1b69b40
replacement data type 0x557fe2017ac0
blk-set is 0
replacement data 0x557fe1b69b48
replacement data type 0x557fe2017ac0
blk-set is 0
replacement data 0x557fe1b69b50
replacement data type 0x557fe2017ac0
blk-set is 0
replacement data 0x557fe1b69b58
replacement data type 0x557fe2017ac0
blk-set is 0
replacement data 0x557fe1b69b60
replacement data type 0x557fe2017ac0
blk-set is 0
replacement data 0x557fe1b69b68
replacement data type 0x557fe2017ac0
blk-set is 0
replacement data 0x557fe1b69b70
replacement data type 0x557fe2017ac0
blk-set is 0
replacement data 0x557fe1b69b78
replacement data type 0x557fe2017ac0
blk-set is 1
replacement data 0x557fe1b69b80
replacement data type 0x557fe2017ac0
blk-set is 1
replacement data 0x557fe1b69b88
replacement data type 0x557fe2017ac0
blk-set is 1
replacement data 0x557fe1b69b90
replacement data type 0x557fe2017ac0
blk-set is 1
replacement data 0x557fe1b69b98
replacement data type 0x557fe2017ac0
blk-set is 1
replacement data 0x557fe1b69ba0
replacement data type 0x557fe2017ac0
blk-set is 1
replacement data 0x557fe1b69ba8
replacement data type 0x557fe2017ac0
blk-set is 1
replacement data 0x557fe1b69bb0
replacement data type 0x557fe2017ac0
blk-set is 1
replacement data 0x557fe1b69bb8
replacement data type 0x557fe2017ac0
blk-set is 1
replacement data 0x557fe1b69bc0
replacement data type 0x557fe2017ac0
blk-set is 1
replacement data 0x557fe1b69bc8
replacement data type 0x557fe2017ac0
blk-set is 1
replacement data 0x557fe1b69bd0
replacement data type 0x557fe2017ac0
blk-set is 1
replacement data 0x557fe1b69bd8
replacement data type 0x557fe2017ac0
blk-set is 1
replacement data 0x557fe1b69be0
replacement data type 0x557fe2017ac0
blk-set is 1
replacement data 0x557fe1b69be8
replacement data type 0x557fe2017ac0
blk-set is 1
replacement data 0x557fe1b69bf0
replacement data type 0x557fe2017ac0
blk-set is 1
replacement data 0x557fe1b69bf8
replacement data type 0x557fe2017ac0
blk-set is 2
replacement data 0x557fe1b69c00
replacement data type 0x557fe2017ac0
blk-set is 2
replacement data 0x557fe1b69c08
replacement data type 0x557fe2017ac0
blk-set is 2
replacement data 0x557fe1b69c10
replacement data type 0x557fe2017ac0
blk-set is 2
replacement data 0x557fe1b69c18
replacement data type 0x557fe2017ac0
blk-set is 2
replacement data 0x557fe1b69c20
replacement data type 0x557fe2017ac0
blk-set is 2
replacement data 0x557fe1b69c28
replacement data type 0x557fe2017ac0
blk-set is 2
replacement data 0x557fe1b69c30
replacement data type 0x557fe2017ac0
blk-set is 2
replacement data 0x557fe1b69c38
replacement data type 0x557fe2017ac0
blk-set is 2
replacement data 0x557fe1b69c40
replacement data type 0x557fe2017ac0
blk-set is 2
replacement data 0x557fe1b69c48
replacement data type 0x557fe2017ac0
blk-set is 2
replacement data 0x557fe1b69c50
replacement data type 0x557fe2017ac0
blk-set is 2
replacement data 0x557fe1b69c58
replacement data type 0x557fe2017ac0
blk-set is 2
replacement data 0x557fe1b69c60
replacement data type 0x557fe2017ac0
blk-set is 2
replacement data 0x557fe1b69c68
replacement data type 0x557fe2017ac0
blk-set is 2
replacement data 0x557fe1b69c70
replacement data type 0x557fe2017ac0
blk-set is 2
replacement data 0x557fe1b69c78
replacement data type 0x557fe2017ac0
blk-set is 3
replacement data 0x557fe1b69c80
replacement data type 0x557fe2017ac0
blk-set is 3
replacement data 0x557fe1b69c88
replacement data type 0x557fe2017ac0
blk-set is 3
replacement data 0x557fe1b69c90
replacement data type 0x557fe2017ac0
blk-set is 3
replacement data 0x557fe1b69c98
replacement data type 0x557fe2017ac0
blk-set is 3
replacement data 0x557fe1b69ca0
replacement data type 0x557fe2017ac0
blk-set is 3
replacement data 0x557fe1b69ca8
replacement data type 0x557fe2017ac0
blk-set is 3
replacement data 0x557fe1b69cb0
replacement data type 0x557fe2017ac0
blk-set is 3
replacement data 0x557fe1b69cb8
replacement data type 0x557fe2017ac0
blk-set is 3
replacement data 0x557fe1b69cc0
replacement data type 0x557fe2017ac0
blk-set is 3
replacement data 0x557fe1b69cc8
replacement data type 0x557fe2017ac0
blk-set is 3
replacement data 0x557fe1b69cd0
replacement data type 0x557fe2017ac0
blk-set is 3
replacement data 0x557fe1b69cd8
replacement data type 0x557fe2017ac0
blk-set is 3
replacement data 0x557fe1b69ce0
replacement data type 0x557fe2017ac0
blk-set is 3
replacement data 0x557fe1b69ce8
replacement data type 0x557fe2017ac0
blk-set is 3
replacement data 0x557fe1b69cf0
replacement data type 0x557fe2017ac0
blk-set is 3
replacement data 0x557fe1b69cf8
replacement data type 0x557fe2017ac0
blk-set is 4
replacement data 0x557fe1b69d00
replacement data type 0x557fe2017ac0
blk-set is 4
replacement data 0x557fe1b69d08
replacement data type 0x557fe2017ac0
blk-set is 4
replacement data 0x557fe1b69d10
replacement data type 0x557fe2017ac0
blk-set is 4
replacement data 0x557fe1b69d18
replacement data type 0x557fe2017ac0
blk-set is 4
replacement data 0x557fe1b69d20
replacement data type 0x557fe2017ac0
blk-set is 4
replacement data 0x557fe1b69d28
replacement data type 0x557fe2017ac0
blk-set is 4
replacement data 0x557fe1b69d30
replacement data type 0x557fe2017ac0
blk-set is 4
replacement data 0x557fe1b69d38
replacement data type 0x557fe2017ac0
blk-set is 4
replacement data 0x557fe1b69d40
replacement data type 0x557fe2017ac0
blk-set is 4
replacement data 0x557fe1b69d48
replacement data type 0x557fe2017ac0
blk-set is 4
replacement data 0x557fe1b69d50
replacement data type 0x557fe2017ac0
blk-set is 4
replacement data 0x557fe1b69d58
replacement data type 0x557fe2017ac0
blk-set is 4
replacement data 0x557fe1b69d60
replacement data type 0x557fe2017ac0
blk-set is 4
replacement data 0x557fe1b69d68
replacement data type 0x557fe2017ac0
blk-set is 4
replacement data 0x557fe1b69d70
replacement data type 0x557fe2017ac0
blk-set is 4
replacement data 0x557fe1b69d78
replacement data type 0x557fe2017ac0
blk-set is 5
replacement data 0x557fe1b69d80
replacement data type 0x557fe2017ac0
blk-set is 5
replacement data 0x557fe1b69d88
replacement data type 0x557fe2017ac0
blk-set is 5
replacement data 0x557fe1b69d90
replacement data type 0x557fe2017ac0
blk-set is 5
replacement data 0x557fe1b69d98
replacement data type 0x557fe2017ac0
blk-set is 5
replacement data 0x557fe1b69da0
replacement data type 0x557fe2017ac0
blk-set is 5
replacement data 0x557fe1b69da8
replacement data type 0x557fe2017ac0
blk-set is 5
replacement data 0x557fe1b69db0
replacement data type 0x557fe2017ac0
blk-set is 5
replacement data 0x557fe1b69db8
replacement data type 0x557fe2017ac0
blk-set is 5
replacement data 0x557fe1b69dc0
replacement data type 0x557fe2017ac0
blk-set is 5
replacement data 0x557fe1b69dc8
replacement data type 0x557fe2017ac0
blk-set is 5
replacement data 0x557fe1b69dd0
replacement data type 0x557fe2017ac0
blk-set is 5
replacement data 0x557fe1b69dd8
replacement data type 0x557fe2017ac0
blk-set is 5
replacement data 0x557fe1b69de0
replacement data type 0x557fe2017ac0
blk-set is 5
replacement data 0x557fe1b69de8
replacement data type 0x557fe2017ac0
blk-set is 5
replacement data 0x557fe1b69df0
replacement data type 0x557fe2017ac0
blk-set is 5
replacement data 0x557fe1b69df8
replacement data type 0x557fe2017ac0
blk-set is 6
replacement data 0x557fe1b69e00
replacement data type 0x557fe2017ac0
blk-set is 6
replacement data 0x557fe1b69e08
replacement data type 0x557fe2017ac0
blk-set is 6
replacement data 0x557fe1b69e10
replacement data type 0x557fe2017ac0
blk-set is 6
replacement data 0x557fe1b69e18
replacement data type 0x557fe2017ac0
blk-set is 6
replacement data 0x557fe1b69e20
replacement data type 0x557fe2017ac0
blk-set is 6
replacement data 0x557fe1b69e28
replacement data type 0x557fe2017ac0
blk-set is 6
replacement data 0x557fe1b69e30
replacement data type 0x557fe2017ac0
blk-set is 6
replacement data 0x557fe1b69e38
replacement data type 0x557fe2017ac0
blk-set is 6
replacement data 0x557fe1b69e40
replacement data type 0x557fe2017ac0
blk-set is 6
replacement data 0x557fe1b69e48
replacement data type 0x557fe2017ac0
blk-set is 6
replacement data 0x557fe1b69e50
replacement data type 0x557fe2017ac0
blk-set is 6
replacement data 0x557fe1b69e58
replacement data type 0x557fe2017ac0
blk-set is 6
replacement data 0x557fe1b69e60
replacement data type 0x557fe2017ac0
blk-set is 6
replacement data 0x557fe1b69e68
replacement data type 0x557fe2017ac0
blk-set is 6
replacement data 0x557fe1b69e70
replacement data type 0x557fe2017ac0
blk-set is 6
replacement data 0x557fe1b69e78
replacement data type 0x557fe2017ac0
blk-set is 7
replacement data 0x557fe1b69e80
replacement data type 0x557fe2017ac0
blk-set is 7
replacement data 0x557fe1b69e88
replacement data type 0x557fe2017ac0
blk-set is 7
replacement data 0x557fe1b69e90
replacement data type 0x557fe2017ac0
blk-set is 7
replacement data 0x557fe1b69e98
replacement data type 0x557fe2017ac0
blk-set is 7
replacement data 0x557fe1b69ea0
replacement data type 0x557fe2017ac0
blk-set is 7
replacement data 0x557fe1b69ea8
replacement data type 0x557fe2017ac0
blk-set is 7
replacement data 0x557fe1b69eb0
replacement data type 0x557fe2017ac0
blk-set is 7
replacement data 0x557fe1b69eb8
replacement data type 0x557fe2017ac0
blk-set is 7
replacement data 0x557fe1b69ec0
replacement data type 0x557fe2017ac0
blk-set is 7
replacement data 0x557fe1b69ec8
replacement data type 0x557fe2017ac0
blk-set is 7
replacement data 0x557fe1b69ed0
replacement data type 0x557fe2017ac0
blk-set is 7
replacement data 0x557fe1b69ed8
replacement data type 0x557fe2017ac0
blk-set is 7
replacement data 0x557fe1b69ee0
replacement data type 0x557fe2017ac0
blk-set is 7
replacement data 0x557fe1b69ee8
replacement data type 0x557fe2017ac0
blk-set is 7
replacement data 0x557fe1b69ef0
replacement data type 0x557fe2017ac0
blk-set is 7
replacement data 0x557fe1b69ef8
replacement data type 0x557fe2017ac0
blk-set is 8
replacement data 0x557fe1b69f00
replacement data type 0x557fe2017ac0
blk-set is 8
replacement data 0x557fe1b69f08
replacement data type 0x557fe2017ac0
blk-set is 8
replacement data 0x557fe1b69f10
replacement data type 0x557fe2017ac0
blk-set is 8
replacement data 0x557fe1b69f18
replacement data type 0x557fe2017ac0
blk-set is 8
replacement data 0x557fe1b69f20
replacement data type 0x557fe2017ac0
blk-set is 8
replacement data 0x557fe1b69f28
replacement data type 0x557fe2017ac0
blk-set is 8
replacement data 0x557fe1b69f30
replacement data type 0x557fe2017ac0
blk-set is 8
replacement data 0x557fe1b69f38
replacement data type 0x557fe2017ac0
blk-set is 8
replacement data 0x557fe1b69f40
replacement data type 0x557fe2017ac0
blk-set is 8
replacement data 0x557fe1b69f48
replacement data type 0x557fe2017ac0
blk-set is 8
replacement data 0x557fe1b69f50
replacement data type 0x557fe2017ac0
blk-set is 8
replacement data 0x557fe1b69f58
replacement data type 0x557fe2017ac0
blk-set is 8
replacement data 0x557fe1b69f60
replacement data type 0x557fe2017ac0
blk-set is 8
replacement data 0x557fe1b69f68
replacement data type 0x557fe2017ac0
blk-set is 8
replacement data 0x557fe1b69f70
replacement data type 0x557fe2017ac0
blk-set is 8
replacement data 0x557fe1b69f78
replacement data type 0x557fe2017ac0
blk-set is 9
replacement data 0x557fe1b69f80
replacement data type 0x557fe2017ac0
blk-set is 9
replacement data 0x557fe1b69f88
replacement data type 0x557fe2017ac0
blk-set is 9
replacement data 0x557fe1b69f90
replacement data type 0x557fe2017ac0
blk-set is 9
replacement data 0x557fe1b69f98
replacement data type 0x557fe2017ac0
blk-set is 9
replacement data 0x557fe1b69fa0
replacement data type 0x557fe2017ac0
blk-set is 9
replacement data 0x557fe1b69fa8
replacement data type 0x557fe2017ac0
blk-set is 9
replacement data 0x557fe1b69fb0
replacement data type 0x557fe2017ac0
blk-set is 9
replacement data 0x557fe1b69fb8
replacement data type 0x557fe2017ac0
blk-set is 9
replacement data 0x557fe1b69fc0
replacement data type 0x557fe2017ac0
blk-set is 9
replacement data 0x557fe1b69fc8
replacement data type 0x557fe2017ac0
blk-set is 9
replacement data 0x557fe1b69fd0
replacement data type 0x557fe2017ac0
blk-set is 9
replacement data 0x557fe1b69fd8
replacement data type 0x557fe2017ac0
blk-set is 9
replacement data 0x557fe1b69fe0
replacement data type 0x557fe2017ac0
blk-set is 9
replacement data 0x557fe1b69fe8
replacement data type 0x557fe2017ac0
blk-set is 9
replacement data 0x557fe1b69ff0
replacement data type 0x557fe2017ac0
blk-set is 9
replacement data 0x557fe1b69ff8
replacement data type 0x557fe2017ac0
blk-set is 10
replacement data 0x557fe24c6000
replacement data type 0x557fe2017ac0
blk-set is 10
replacement data 0x557fe24c6008
replacement data type 0x557fe2017ac0
blk-set is 10
replacement data 0x557fe24c6010
replacement data type 0x557fe2017ac0
blk-set is 10
replacement data 0x557fe24c6018
replacement data type 0x557fe2017ac0
blk-set is 10
replacement data 0x557fe24c6020
replacement data type 0x557fe2017ac0
blk-set is 10
replacement data 0x557fe24c6028
replacement data type 0x557fe2017ac0
blk-set is 10
replacement data 0x557fe24c6030
replacement data type 0x557fe2017ac0
blk-set is 10
replacement data 0x557fe24c6038
replacement data type 0x557fe2017ac0
blk-set is 10
replacement data 0x557fe24c6040
replacement data type 0x557fe2017ac0
blk-set is 10
replacement data 0x557fe24c6048
replacement data type 0x557fe2017ac0
blk-set is 10
replacement data 0x557fe24c6050
replacement data type 0x557fe2017ac0
blk-set is 10
replacement data 0x557fe24c6058
replacement data type 0x557fe2017ac0
blk-set is 10
replacement data 0x557fe24c6060
replacement data type 0x557fe2017ac0
blk-set is 10
replacement data 0x557fe24c6068
replacement data type 0x557fe2017ac0
blk-set is 10
replacement data 0x557fe24c6070
replacement data type 0x557fe2017ac0
blk-set is 10
replacement data 0x557fe24c6078
replacement data type 0x557fe2017ac0
blk-set is 11
replacement data 0x557fe24c6080
replacement data type 0x557fe2017ac0
blk-set is 11
replacement data 0x557fe24c6088
replacement data type 0x557fe2017ac0
blk-set is 11
replacement data 0x557fe24c6090
replacement data type 0x557fe2017ac0
blk-set is 11
replacement data 0x557fe24c6098
replacement data type 0x557fe2017ac0
blk-set is 11
replacement data 0x557fe24c60a0
replacement data type 0x557fe2017ac0
blk-set is 11
replacement data 0x557fe24c60a8
replacement data type 0x557fe2017ac0
blk-set is 11
replacement data 0x557fe24c60b0
replacement data type 0x557fe2017ac0
blk-set is 11
replacement data 0x557fe24c60b8
replacement data type 0x557fe2017ac0
blk-set is 11
replacement data 0x557fe24c60c0
replacement data type 0x557fe2017ac0
blk-set is 11
replacement data 0x557fe24c60c8
replacement data type 0x557fe2017ac0
blk-set is 11
replacement data 0x557fe24c60d0
replacement data type 0x557fe2017ac0
blk-set is 11
replacement data 0x557fe24c60d8
replacement data type 0x557fe2017ac0
blk-set is 11
replacement data 0x557fe24c60e0
replacement data type 0x557fe2017ac0
blk-set is 11
replacement data 0x557fe24c60e8
replacement data type 0x557fe2017ac0
blk-set is 11
replacement data 0x557fe24c60f0
replacement data type 0x557fe2017ac0
blk-set is 11
replacement data 0x557fe24c60f8
replacement data type 0x557fe2017ac0
blk-set is 12
replacement data 0x557fe24c6100
replacement data type 0x557fe2017ac0
blk-set is 12
replacement data 0x557fe24c6108
replacement data type 0x557fe2017ac0
blk-set is 12
replacement data 0x557fe24c6110
replacement data type 0x557fe2017ac0
blk-set is 12
replacement data 0x557fe24c6118
replacement data type 0x557fe2017ac0
blk-set is 12
replacement data 0x557fe24c6120
replacement data type 0x557fe2017ac0
blk-set is 12
replacement data 0x557fe24c6128
replacement data type 0x557fe2017ac0
blk-set is 12
replacement data 0x557fe24c6130
replacement data type 0x557fe2017ac0
blk-set is 12
replacement data 0x557fe24c6138
replacement data type 0x557fe2017ac0
blk-set is 12
replacement data 0x557fe24c6140
replacement data type 0x557fe2017ac0
blk-set is 12
replacement data 0x557fe24c6148
replacement data type 0x557fe2017ac0
blk-set is 12
replacement data 0x557fe24c6150
replacement data type 0x557fe2017ac0
blk-set is 12
replacement data 0x557fe24c6158
replacement data type 0x557fe2017ac0
blk-set is 12
replacement data 0x557fe24c6160
replacement data type 0x557fe2017ac0
blk-set is 12
replacement data 0x557fe24c6168
replacement data type 0x557fe2017ac0
blk-set is 12
replacement data 0x557fe24c6170
replacement data type 0x557fe2017ac0
blk-set is 12
replacement data 0x557fe24c6178
replacement data type 0x557fe2017ac0
blk-set is 13
replacement data 0x557fe24c6180
replacement data type 0x557fe2017ac0
blk-set is 13
replacement data 0x557fe24c6188
replacement data type 0x557fe2017ac0
blk-set is 13
replacement data 0x557fe24c6190
replacement data type 0x557fe2017ac0
blk-set is 13
replacement data 0x557fe24c6198
replacement data type 0x557fe2017ac0
blk-set is 13
replacement data 0x557fe24c61a0
replacement data type 0x557fe2017ac0
blk-set is 13
replacement data 0x557fe24c61a8
replacement data type 0x557fe2017ac0
blk-set is 13
replacement data 0x557fe24c61b0
replacement data type 0x557fe2017ac0
blk-set is 13
replacement data 0x557fe24c61b8
replacement data type 0x557fe2017ac0
blk-set is 13
replacement data 0x557fe24c61c0
replacement data type 0x557fe2017ac0
blk-set is 13
replacement data 0x557fe24c61c8
replacement data type 0x557fe2017ac0
blk-set is 13
replacement data 0x557fe24c61d0
replacement data type 0x557fe2017ac0
blk-set is 13
replacement data 0x557fe24c61d8
replacement data type 0x557fe2017ac0
blk-set is 13
replacement data 0x557fe24c61e0
replacement data type 0x557fe2017ac0
blk-set is 13
replacement data 0x557fe24c61e8
replacement data type 0x557fe2017ac0
blk-set is 13
replacement data 0x557fe24c61f0
replacement data type 0x557fe2017ac0
blk-set is 13
replacement data 0x557fe24c61f8
replacement data type 0x557fe2017ac0
blk-set is 14
replacement data 0x557fe24c6200
replacement data type 0x557fe2017ac0
blk-set is 14
replacement data 0x557fe24c6208
replacement data type 0x557fe2017ac0
blk-set is 14
replacement data 0x557fe24c6210
replacement data type 0x557fe2017ac0
blk-set is 14
replacement data 0x557fe24c6218
replacement data type 0x557fe2017ac0
blk-set is 14
replacement data 0x557fe24c6220
replacement data type 0x557fe2017ac0
blk-set is 14
replacement data 0x557fe24c6228
replacement data type 0x557fe2017ac0
blk-set is 14
replacement data 0x557fe24c6230
replacement data type 0x557fe2017ac0
blk-set is 14
replacement data 0x557fe24c6238
replacement data type 0x557fe2017ac0
blk-set is 14
replacement data 0x557fe24c6240
replacement data type 0x557fe2017ac0
blk-set is 14
replacement data 0x557fe24c6248
replacement data type 0x557fe2017ac0
blk-set is 14
replacement data 0x557fe24c6250
replacement data type 0x557fe2017ac0
blk-set is 14
replacement data 0x557fe24c6258
replacement data type 0x557fe2017ac0
blk-set is 14
replacement data 0x557fe24c6260
replacement data type 0x557fe2017ac0
blk-set is 14
replacement data 0x557fe24c6268
replacement data type 0x557fe2017ac0
blk-set is 14
replacement data 0x557fe24c6270
replacement data type 0x557fe2017ac0
blk-set is 14
replacement data 0x557fe24c6278
replacement data type 0x557fe2017ac0
blk-set is 15
replacement data 0x557fe24c6280
replacement data type 0x557fe2017ac0
blk-set is 15
replacement data 0x557fe24c6288
replacement data type 0x557fe2017ac0
blk-set is 15
replacement data 0x557fe24c6290
replacement data type 0x557fe2017ac0
blk-set is 15
replacement data 0x557fe24c6298
replacement data type 0x557fe2017ac0
blk-set is 15
replacement data 0x557fe24c62a0
replacement data type 0x557fe2017ac0
blk-set is 15
replacement data 0x557fe24c62a8
replacement data type 0x557fe2017ac0
blk-set is 15
replacement data 0x557fe24c62b0
replacement data type 0x557fe2017ac0
blk-set is 15
replacement data 0x557fe24c62b8
replacement data type 0x557fe2017ac0
blk-set is 15
replacement data 0x557fe24c62c0
replacement data type 0x557fe2017ac0
blk-set is 15
replacement data 0x557fe24c62c8
replacement data type 0x557fe2017ac0
blk-set is 15
replacement data 0x557fe24c62d0
replacement data type 0x557fe2017ac0
blk-set is 15
replacement data 0x557fe24c62d8
replacement data type 0x557fe2017ac0
blk-set is 15
replacement data 0x557fe24c62e0
replacement data type 0x557fe2017ac0
blk-set is 15
replacement data 0x557fe24c62e8
replacement data type 0x557fe2017ac0
blk-set is 15
replacement data 0x557fe24c62f0
replacement data type 0x557fe2017ac0
blk-set is 15
replacement data 0x557fe24c62f8
replacement data type 0x557fe2017ac0
blk-set is 16
replacement data 0x557fe24c6300
replacement data type 0x557fe2017ac0
blk-set is 16
replacement data 0x557fe24c6308
replacement data type 0x557fe2017ac0
blk-set is 16
replacement data 0x557fe24c6310
replacement data type 0x557fe2017ac0
blk-set is 16
replacement data 0x557fe24c6318
replacement data type 0x557fe2017ac0
blk-set is 16
replacement data 0x557fe24c6320
replacement data type 0x557fe2017ac0
blk-set is 16
replacement data 0x557fe24c6328
replacement data type 0x557fe2017ac0
blk-set is 16
replacement data 0x557fe24c6330
replacement data type 0x557fe2017ac0
blk-set is 16
replacement data 0x557fe24c6338
replacement data type 0x557fe2017ac0
blk-set is 16
replacement data 0x557fe24c6340
replacement data type 0x557fe2017ac0
blk-set is 16
replacement data 0x557fe24c6348
replacement data type 0x557fe2017ac0
blk-set is 16
replacement data 0x557fe24c6350
replacement data type 0x557fe2017ac0
blk-set is 16
replacement data 0x557fe24c6358
replacement data type 0x557fe2017ac0
blk-set is 16
replacement data 0x557fe24c6360
replacement data type 0x557fe2017ac0
blk-set is 16
replacement data 0x557fe24c6368
replacement data type 0x557fe2017ac0
blk-set is 16
replacement data 0x557fe24c6370
replacement data type 0x557fe2017ac0
blk-set is 16
replacement data 0x557fe24c6378
replacement data type 0x557fe2017ac0
blk-set is 17
replacement data 0x557fe24c6380
replacement data type 0x557fe2017ac0
blk-set is 17
replacement data 0x557fe24c6388
replacement data type 0x557fe2017ac0
blk-set is 17
replacement data 0x557fe24c6390
replacement data type 0x557fe2017ac0
blk-set is 17
replacement data 0x557fe24c6398
replacement data type 0x557fe2017ac0
blk-set is 17
replacement data 0x557fe24c63a0
replacement data type 0x557fe2017ac0
blk-set is 17
replacement data 0x557fe24c63a8
replacement data type 0x557fe2017ac0
blk-set is 17
replacement data 0x557fe24c63b0
replacement data type 0x557fe2017ac0
blk-set is 17
replacement data 0x557fe24c63b8
replacement data type 0x557fe2017ac0
blk-set is 17
replacement data 0x557fe24c63c0
replacement data type 0x557fe2017ac0
blk-set is 17
replacement data 0x557fe24c63c8
replacement data type 0x557fe2017ac0
blk-set is 17
replacement data 0x557fe24c63d0
replacement data type 0x557fe2017ac0
blk-set is 17
replacement data 0x557fe24c63d8
replacement data type 0x557fe2017ac0
blk-set is 17
replacement data 0x557fe24c63e0
replacement data type 0x557fe2017ac0
blk-set is 17
replacement data 0x557fe24c63e8
replacement data type 0x557fe2017ac0
blk-set is 17
replacement data 0x557fe24c63f0
replacement data type 0x557fe2017ac0
blk-set is 17
replacement data 0x557fe24c63f8
replacement data type 0x557fe2017ac0
blk-set is 18
replacement data 0x557fe24c6400
replacement data type 0x557fe2017ac0
blk-set is 18
replacement data 0x557fe24c6408
replacement data type 0x557fe2017ac0
blk-set is 18
replacement data 0x557fe24c6410
replacement data type 0x557fe2017ac0
blk-set is 18
replacement data 0x557fe24c6418
replacement data type 0x557fe2017ac0
blk-set is 18
replacement data 0x557fe24c6420
replacement data type 0x557fe2017ac0
blk-set is 18
replacement data 0x557fe24c6428
replacement data type 0x557fe2017ac0
blk-set is 18
replacement data 0x557fe24c6430
replacement data type 0x557fe2017ac0
blk-set is 18
replacement data 0x557fe24c6438
replacement data type 0x557fe2017ac0
blk-set is 18
replacement data 0x557fe24c6440
replacement data type 0x557fe2017ac0
blk-set is 18
replacement data 0x557fe24c6448
replacement data type 0x557fe2017ac0
blk-set is 18
replacement data 0x557fe24c6450
replacement data type 0x557fe2017ac0
blk-set is 18
replacement data 0x557fe24c6458
replacement data type 0x557fe2017ac0
blk-set is 18
replacement data 0x557fe24c6460
replacement data type 0x557fe2017ac0
blk-set is 18
replacement data 0x557fe24c6468
replacement data type 0x557fe2017ac0
blk-set is 18
replacement data 0x557fe24c6470
replacement data type 0x557fe2017ac0
blk-set is 18
replacement data 0x557fe24c6478
replacement data type 0x557fe2017ac0
blk-set is 19
replacement data 0x557fe24c6480
replacement data type 0x557fe2017ac0
blk-set is 19
replacement data 0x557fe24c6488
replacement data type 0x557fe2017ac0
blk-set is 19
replacement data 0x557fe24c6490
replacement data type 0x557fe2017ac0
blk-set is 19
replacement data 0x557fe24c6498
replacement data type 0x557fe2017ac0
blk-set is 19
replacement data 0x557fe24c64a0
replacement data type 0x557fe2017ac0
blk-set is 19
replacement data 0x557fe24c64a8
replacement data type 0x557fe2017ac0
blk-set is 19
replacement data 0x557fe24c64b0
replacement data type 0x557fe2017ac0
blk-set is 19
replacement data 0x557fe24c64b8
replacement data type 0x557fe2017ac0
blk-set is 19
replacement data 0x557fe24c64c0
replacement data type 0x557fe2017ac0
blk-set is 19
replacement data 0x557fe24c64c8
replacement data type 0x557fe2017ac0
blk-set is 19
replacement data 0x557fe24c64d0
replacement data type 0x557fe2017ac0
blk-set is 19
replacement data 0x557fe24c64d8
replacement data type 0x557fe2017ac0
blk-set is 19
replacement data 0x557fe24c64e0
replacement data type 0x557fe2017ac0
blk-set is 19
replacement data 0x557fe24c64e8
replacement data type 0x557fe2017ac0
blk-set is 19
replacement data 0x557fe24c64f0
replacement data type 0x557fe2017ac0
blk-set is 19
replacement data 0x557fe24c64f8
replacement data type 0x557fe2017ac0
blk-set is 20
replacement data 0x557fe24c6500
replacement data type 0x557fe2017ac0
blk-set is 20
replacement data 0x557fe24c6508
replacement data type 0x557fe2017ac0
blk-set is 20
replacement data 0x557fe24c6510
replacement data type 0x557fe2017ac0
blk-set is 20
replacement data 0x557fe24c6518
replacement data type 0x557fe2017ac0
blk-set is 20
replacement data 0x557fe24c6520
replacement data type 0x557fe2017ac0
blk-set is 20
replacement data 0x557fe24c6528
replacement data type 0x557fe2017ac0
blk-set is 20
replacement data 0x557fe24c6530
replacement data type 0x557fe2017ac0
blk-set is 20
replacement data 0x557fe24c6538
replacement data type 0x557fe2017ac0
blk-set is 20
replacement data 0x557fe24c6540
replacement data type 0x557fe2017ac0
blk-set is 20
replacement data 0x557fe24c6548
replacement data type 0x557fe2017ac0
blk-set is 20
replacement data 0x557fe24c6550
replacement data type 0x557fe2017ac0
blk-set is 20
replacement data 0x557fe24c6558
replacement data type 0x557fe2017ac0
blk-set is 20
replacement data 0x557fe24c6560
replacement data type 0x557fe2017ac0
blk-set is 20
replacement data 0x557fe24c6568
replacement data type 0x557fe2017ac0
blk-set is 20
replacement data 0x557fe24c6570
replacement data type 0x557fe2017ac0
blk-set is 20
replacement data 0x557fe24c6578
replacement data type 0x557fe2017ac0
blk-set is 21
replacement data 0x557fe24c6580
replacement data type 0x557fe2017ac0
blk-set is 21
replacement data 0x557fe24c6588
replacement data type 0x557fe2017ac0
blk-set is 21
replacement data 0x557fe24c6590
replacement data type 0x557fe2017ac0
blk-set is 21
replacement data 0x557fe24c6598
replacement data type 0x557fe2017ac0
blk-set is 21
replacement data 0x557fe24c65a0
replacement data type 0x557fe2017ac0
blk-set is 21
replacement data 0x557fe24c65a8
replacement data type 0x557fe2017ac0
blk-set is 21
replacement data 0x557fe24c65b0
replacement data type 0x557fe2017ac0
blk-set is 21
replacement data 0x557fe24c65b8
replacement data type 0x557fe2017ac0
blk-set is 21
replacement data 0x557fe24c65c0
replacement data type 0x557fe2017ac0
blk-set is 21
replacement data 0x557fe24c65c8
replacement data type 0x557fe2017ac0
blk-set is 21
replacement data 0x557fe24c65d0
replacement data type 0x557fe2017ac0
blk-set is 21
replacement data 0x557fe24c65d8
replacement data type 0x557fe2017ac0
blk-set is 21
replacement data 0x557fe24c65e0
replacement data type 0x557fe2017ac0
blk-set is 21
replacement data 0x557fe24c65e8
replacement data type 0x557fe2017ac0
blk-set is 21
replacement data 0x557fe24c65f0
replacement data type 0x557fe2017ac0
blk-set is 21
replacement data 0x557fe24c65f8
replacement data type 0x557fe2017ac0
blk-set is 22
replacement data 0x557fe24c6600
replacement data type 0x557fe2017ac0
blk-set is 22
replacement data 0x557fe24c6608
replacement data type 0x557fe2017ac0
blk-set is 22
replacement data 0x557fe24c6610
replacement data type 0x557fe2017ac0
blk-set is 22
replacement data 0x557fe24c6618
replacement data type 0x557fe2017ac0
blk-set is 22
replacement data 0x557fe24c6620
replacement data type 0x557fe2017ac0
blk-set is 22
replacement data 0x557fe24c6628
replacement data type 0x557fe2017ac0
blk-set is 22
replacement data 0x557fe24c6630
replacement data type 0x557fe2017ac0
blk-set is 22
replacement data 0x557fe24c6638
replacement data type 0x557fe2017ac0
blk-set is 22
replacement data 0x557fe24c6640
replacement data type 0x557fe2017ac0
blk-set is 22
replacement data 0x557fe24c6648
replacement data type 0x557fe2017ac0
blk-set is 22
replacement data 0x557fe24c6650
replacement data type 0x557fe2017ac0
blk-set is 22
replacement data 0x557fe24c6658
replacement data type 0x557fe2017ac0
blk-set is 22
replacement data 0x557fe24c6660
replacement data type 0x557fe2017ac0
blk-set is 22
replacement data 0x557fe24c6668
replacement data type 0x557fe2017ac0
blk-set is 22
replacement data 0x557fe24c6670
replacement data type 0x557fe2017ac0
blk-set is 22
replacement data 0x557fe24c6678
replacement data type 0x557fe2017ac0
blk-set is 23
replacement data 0x557fe24c6680
replacement data type 0x557fe2017ac0
blk-set is 23
replacement data 0x557fe24c6688
replacement data type 0x557fe2017ac0
blk-set is 23
replacement data 0x557fe24c6690
replacement data type 0x557fe2017ac0
blk-set is 23
replacement data 0x557fe24c6698
replacement data type 0x557fe2017ac0
blk-set is 23
replacement data 0x557fe24c66a0
replacement data type 0x557fe2017ac0
blk-set is 23
replacement data 0x557fe24c66a8
replacement data type 0x557fe2017ac0
blk-set is 23
replacement data 0x557fe24c66b0
replacement data type 0x557fe2017ac0
blk-set is 23
replacement data 0x557fe24c66b8
replacement data type 0x557fe2017ac0
blk-set is 23
replacement data 0x557fe24c66c0
replacement data type 0x557fe2017ac0
blk-set is 23
replacement data 0x557fe24c66c8
replacement data type 0x557fe2017ac0
blk-set is 23
replacement data 0x557fe24c66d0
replacement data type 0x557fe2017ac0
blk-set is 23
replacement data 0x557fe24c66d8
replacement data type 0x557fe2017ac0
blk-set is 23
replacement data 0x557fe24c66e0
replacement data type 0x557fe2017ac0
blk-set is 23
replacement data 0x557fe24c66e8
replacement data type 0x557fe2017ac0
blk-set is 23
replacement data 0x557fe24c66f0
replacement data type 0x557fe2017ac0
blk-set is 23
replacement data 0x557fe24c66f8
replacement data type 0x557fe2017ac0
blk-set is 24
replacement data 0x557fe24c6700
replacement data type 0x557fe2017ac0
blk-set is 24
replacement data 0x557fe24c6708
replacement data type 0x557fe2017ac0
blk-set is 24
replacement data 0x557fe24c6710
replacement data type 0x557fe2017ac0
blk-set is 24
replacement data 0x557fe24c6718
replacement data type 0x557fe2017ac0
blk-set is 24
replacement data 0x557fe24c6720
replacement data type 0x557fe2017ac0
blk-set is 24
replacement data 0x557fe24c6728
replacement data type 0x557fe2017ac0
blk-set is 24
replacement data 0x557fe24c6730
replacement data type 0x557fe2017ac0
blk-set is 24
replacement data 0x557fe24c6738
replacement data type 0x557fe2017ac0
blk-set is 24
replacement data 0x557fe24c6740
replacement data type 0x557fe2017ac0
blk-set is 24
replacement data 0x557fe24c6748
replacement data type 0x557fe2017ac0
blk-set is 24
replacement data 0x557fe24c6750
replacement data type 0x557fe2017ac0
blk-set is 24
replacement data 0x557fe24c6758
replacement data type 0x557fe2017ac0
blk-set is 24
replacement data 0x557fe24c6760
replacement data type 0x557fe2017ac0
blk-set is 24
replacement data 0x557fe24c6768
replacement data type 0x557fe2017ac0
blk-set is 24
replacement data 0x557fe24c6770
replacement data type 0x557fe2017ac0
blk-set is 24
replacement data 0x557fe24c6778
replacement data type 0x557fe2017ac0
blk-set is 25
replacement data 0x557fe24c6780
replacement data type 0x557fe2017ac0
blk-set is 25
replacement data 0x557fe24c6788
replacement data type 0x557fe2017ac0
blk-set is 25
replacement data 0x557fe24c6790
replacement data type 0x557fe2017ac0
blk-set is 25
replacement data 0x557fe24c6798
replacement data type 0x557fe2017ac0
blk-set is 25
replacement data 0x557fe24c67a0
replacement data type 0x557fe2017ac0
blk-set is 25
replacement data 0x557fe24c67a8
replacement data type 0x557fe2017ac0
blk-set is 25
replacement data 0x557fe24c67b0
replacement data type 0x557fe2017ac0
blk-set is 25
replacement data 0x557fe24c67b8
replacement data type 0x557fe2017ac0
blk-set is 25
replacement data 0x557fe24c67c0
replacement data type 0x557fe2017ac0
blk-set is 25
replacement data 0x557fe24c67c8
replacement data type 0x557fe2017ac0
blk-set is 25
replacement data 0x557fe24c67d0
replacement data type 0x557fe2017ac0
blk-set is 25
replacement data 0x557fe24c67d8
replacement data type 0x557fe2017ac0
blk-set is 25
replacement data 0x557fe24c67e0
replacement data type 0x557fe2017ac0
blk-set is 25
replacement data 0x557fe24c67e8
replacement data type 0x557fe2017ac0
blk-set is 25
replacement data 0x557fe24c67f0
replacement data type 0x557fe2017ac0
blk-set is 25
replacement data 0x557fe24c67f8
replacement data type 0x557fe2017ac0
blk-set is 26
replacement data 0x557fe24c6800
replacement data type 0x557fe2017ac0
blk-set is 26
replacement data 0x557fe24c6808
replacement data type 0x557fe2017ac0
blk-set is 26
replacement data 0x557fe24c6810
replacement data type 0x557fe2017ac0
blk-set is 26
replacement data 0x557fe24c6818
replacement data type 0x557fe2017ac0
blk-set is 26
replacement data 0x557fe24c6820
replacement data type 0x557fe2017ac0
blk-set is 26
replacement data 0x557fe24c6828
replacement data type 0x557fe2017ac0
blk-set is 26
replacement data 0x557fe24c6830
replacement data type 0x557fe2017ac0
blk-set is 26
replacement data 0x557fe24c6838
replacement data type 0x557fe2017ac0
blk-set is 26
replacement data 0x557fe24c6840
replacement data type 0x557fe2017ac0
blk-set is 26
replacement data 0x557fe24c6848
replacement data type 0x557fe2017ac0
blk-set is 26
replacement data 0x557fe24c6850
replacement data type 0x557fe2017ac0
blk-set is 26
replacement data 0x557fe24c6858
replacement data type 0x557fe2017ac0
blk-set is 26
replacement data 0x557fe24c6860
replacement data type 0x557fe2017ac0
blk-set is 26
replacement data 0x557fe24c6868
replacement data type 0x557fe2017ac0
blk-set is 26
replacement data 0x557fe24c6870
replacement data type 0x557fe2017ac0
blk-set is 26
replacement data 0x557fe24c6878
replacement data type 0x557fe2017ac0
blk-set is 27
replacement data 0x557fe24c6880
replacement data type 0x557fe2017ac0
blk-set is 27
replacement data 0x557fe24c6888
replacement data type 0x557fe2017ac0
blk-set is 27
replacement data 0x557fe24c6890
replacement data type 0x557fe2017ac0
blk-set is 27
replacement data 0x557fe24c6898
replacement data type 0x557fe2017ac0
blk-set is 27
replacement data 0x557fe24c68a0
replacement data type 0x557fe2017ac0
blk-set is 27
replacement data 0x557fe24c68a8
replacement data type 0x557fe2017ac0
blk-set is 27
replacement data 0x557fe24c68b0
replacement data type 0x557fe2017ac0
blk-set is 27
replacement data 0x557fe24c68b8
replacement data type 0x557fe2017ac0
blk-set is 27
replacement data 0x557fe24c68c0
replacement data type 0x557fe2017ac0
blk-set is 27
replacement data 0x557fe24c68c8
replacement data type 0x557fe2017ac0
blk-set is 27
replacement data 0x557fe24c68d0
replacement data type 0x557fe2017ac0
blk-set is 27
replacement data 0x557fe24c68d8
replacement data type 0x557fe2017ac0
blk-set is 27
replacement data 0x557fe24c68e0
replacement data type 0x557fe2017ac0
blk-set is 27
replacement data 0x557fe24c68e8
replacement data type 0x557fe2017ac0
blk-set is 27
replacement data 0x557fe24c68f0
replacement data type 0x557fe2017ac0
blk-set is 27
replacement data 0x557fe24c68f8
replacement data type 0x557fe2017ac0
blk-set is 28
replacement data 0x557fe24c6900
replacement data type 0x557fe2017ac0
blk-set is 28
replacement data 0x557fe24c6908
replacement data type 0x557fe2017ac0
blk-set is 28
replacement data 0x557fe24c6910
replacement data type 0x557fe2017ac0
blk-set is 28
replacement data 0x557fe24c6918
replacement data type 0x557fe2017ac0
blk-set is 28
replacement data 0x557fe24c6920
replacement data type 0x557fe2017ac0
blk-set is 28
replacement data 0x557fe24c6928
replacement data type 0x557fe2017ac0
blk-set is 28
replacement data 0x557fe24c6930
replacement data type 0x557fe2017ac0
blk-set is 28
replacement data 0x557fe24c6938
replacement data type 0x557fe2017ac0
blk-set is 28
replacement data 0x557fe24c6940
replacement data type 0x557fe2017ac0
blk-set is 28
replacement data 0x557fe24c6948
replacement data type 0x557fe2017ac0
blk-set is 28
replacement data 0x557fe24c6950
replacement data type 0x557fe2017ac0
blk-set is 28
replacement data 0x557fe24c6958
replacement data type 0x557fe2017ac0
blk-set is 28
replacement data 0x557fe24c6960
replacement data type 0x557fe2017ac0
blk-set is 28
replacement data 0x557fe24c6968
replacement data type 0x557fe2017ac0
blk-set is 28
replacement data 0x557fe24c6970
replacement data type 0x557fe2017ac0
blk-set is 28
replacement data 0x557fe24c6978
replacement data type 0x557fe2017ac0
blk-set is 29
replacement data 0x557fe24c6980
replacement data type 0x557fe2017ac0
blk-set is 29
replacement data 0x557fe24c6988
replacement data type 0x557fe2017ac0
blk-set is 29
replacement data 0x557fe24c6990
replacement data type 0x557fe2017ac0
blk-set is 29
replacement data 0x557fe24c6998
replacement data type 0x557fe2017ac0
blk-set is 29
replacement data 0x557fe24c69a0
replacement data type 0x557fe2017ac0
blk-set is 29
replacement data 0x557fe24c69a8
replacement data type 0x557fe2017ac0
blk-set is 29
replacement data 0x557fe24c69b0
replacement data type 0x557fe2017ac0
blk-set is 29
replacement data 0x557fe24c69b8
replacement data type 0x557fe2017ac0
blk-set is 29
replacement data 0x557fe24c69c0
replacement data type 0x557fe2017ac0
blk-set is 29
replacement data 0x557fe24c69c8
replacement data type 0x557fe2017ac0
blk-set is 29
replacement data 0x557fe24c69d0
replacement data type 0x557fe2017ac0
blk-set is 29
replacement data 0x557fe24c69d8
replacement data type 0x557fe2017ac0
blk-set is 29
replacement data 0x557fe24c69e0
replacement data type 0x557fe2017ac0
blk-set is 29
replacement data 0x557fe24c69e8
replacement data type 0x557fe2017ac0
blk-set is 29
replacement data 0x557fe24c69f0
replacement data type 0x557fe2017ac0
blk-set is 29
replacement data 0x557fe24c69f8
replacement data type 0x557fe2017ac0
blk-set is 30
replacement data 0x557fe24c6a00
replacement data type 0x557fe2017ac0
blk-set is 30
replacement data 0x557fe24c6a08
replacement data type 0x557fe2017ac0
blk-set is 30
replacement data 0x557fe24c6a10
replacement data type 0x557fe2017ac0
blk-set is 30
replacement data 0x557fe24c6a18
replacement data type 0x557fe2017ac0
blk-set is 30
replacement data 0x557fe24c6a20
replacement data type 0x557fe2017ac0
blk-set is 30
replacement data 0x557fe24c6a28
replacement data type 0x557fe2017ac0
blk-set is 30
replacement data 0x557fe24c6a30
replacement data type 0x557fe2017ac0
blk-set is 30
replacement data 0x557fe24c6a38
replacement data type 0x557fe2017ac0
blk-set is 30
replacement data 0x557fe24c6a40
replacement data type 0x557fe2017ac0
blk-set is 30
replacement data 0x557fe24c6a48
replacement data type 0x557fe2017ac0
blk-set is 30
replacement data 0x557fe24c6a50
replacement data type 0x557fe2017ac0
blk-set is 30
replacement data 0x557fe24c6a58
replacement data type 0x557fe2017ac0
blk-set is 30
replacement data 0x557fe24c6a60
replacement data type 0x557fe2017ac0
blk-set is 30
replacement data 0x557fe24c6a68
replacement data type 0x557fe2017ac0
blk-set is 30
replacement data 0x557fe24c6a70
replacement data type 0x557fe2017ac0
blk-set is 30
replacement data 0x557fe24c6a78
replacement data type 0x557fe2017ac0
blk-set is 31
replacement data 0x557fe24c6a80
replacement data type 0x557fe2017ac0
blk-set is 31
replacement data 0x557fe24c6a88
replacement data type 0x557fe2017ac0
blk-set is 31
replacement data 0x557fe24c6a90
replacement data type 0x557fe2017ac0
blk-set is 31
replacement data 0x557fe24c6a98
replacement data type 0x557fe2017ac0
blk-set is 31
replacement data 0x557fe24c6aa0
replacement data type 0x557fe2017ac0
blk-set is 31
replacement data 0x557fe24c6aa8
replacement data type 0x557fe2017ac0
blk-set is 31
replacement data 0x557fe24c6ab0
replacement data type 0x557fe2017ac0
blk-set is 31
replacement data 0x557fe24c6ab8
replacement data type 0x557fe2017ac0
blk-set is 31
replacement data 0x557fe24c6ac0
replacement data type 0x557fe2017ac0
blk-set is 31
replacement data 0x557fe24c6ac8
replacement data type 0x557fe2017ac0
blk-set is 31
replacement data 0x557fe24c6ad0
replacement data type 0x557fe2017ac0
blk-set is 31
replacement data 0x557fe24c6ad8
replacement data type 0x557fe2017ac0
blk-set is 31
replacement data 0x557fe24c6ae0
replacement data type 0x557fe2017ac0
blk-set is 31
replacement data 0x557fe24c6ae8
replacement data type 0x557fe2017ac0
blk-set is 31
replacement data 0x557fe24c6af0
replacement data type 0x557fe2017ac0
blk-set is 31
**** REAL SIMULATION ****
Usage: fft <waves> <length> -i
-i performs an inverse fft
make <waves> random sinusoids<length> is the number of samples
Exiting @ tick 80963500 because exiting with last active thread context
Simulated exit code not 0! Exit code is 255
