
---------- Begin Simulation Statistics ----------
sim_seconds                                  0.122419                       # Number of seconds simulated
sim_ticks                                122419422500                       # Number of ticks simulated
final_tick                               122419422500                       # Number of ticks from beginning of simulation (restored from checkpoints and never reset)
sim_freq                                 1000000000000                       # Frequency of simulated ticks
host_inst_rate                                1039097                       # Simulator instruction rate (inst/s)
host_op_rate                                  1104670                       # Simulator op (including micro ops) rate (op/s)
host_tick_rate                             2912101189                       # Simulator tick rate (ticks/s)
host_mem_usage                                 669852                       # Number of bytes of host memory used
host_seconds                                    42.04                       # Real time elapsed on the host
sim_insts                                    43681711                       # Number of instructions simulated
sim_ops                                      46438296                       # Number of ops (including micro ops) simulated
system.voltage_domain.voltage                       1                       # Voltage in Volts
system.clk_domain.clock                          1000                       # Clock period in ticks
system.mem_ctrls.pwrStateResidencyTicks::UNDEFINED 122419422500                       # Cumulative time (in ticks) in various power states
system.mem_ctrls.bytes_read::.cpu.inst         120336                       # Number of bytes read from this memory
system.mem_ctrls.bytes_read::.cpu.data        5153792                       # Number of bytes read from this memory
system.mem_ctrls.bytes_read::total            5274128                       # Number of bytes read from this memory
system.mem_ctrls.bytes_inst_read::.cpu.inst       120336                       # Number of instructions bytes read from this memory
system.mem_ctrls.bytes_inst_read::total        120336                       # Number of instructions bytes read from this memory
system.mem_ctrls.bytes_written::.writebacks       347392                       # Number of bytes written to this memory
system.mem_ctrls.bytes_written::total          347392                       # Number of bytes written to this memory
system.mem_ctrls.num_reads::.cpu.inst            7521                       # Number of read requests responded to by this memory
system.mem_ctrls.num_reads::.cpu.data          322112                       # Number of read requests responded to by this memory
system.mem_ctrls.num_reads::total              329633                       # Number of read requests responded to by this memory
system.mem_ctrls.num_writes::.writebacks        21712                       # Number of write requests responded to by this memory
system.mem_ctrls.num_writes::total              21712                       # Number of write requests responded to by this memory
system.mem_ctrls.bw_read::.cpu.inst            982981                       # Total read bandwidth from this memory (bytes/s)
system.mem_ctrls.bw_read::.cpu.data          42099463                       # Total read bandwidth from this memory (bytes/s)
system.mem_ctrls.bw_read::total              43082445                       # Total read bandwidth from this memory (bytes/s)
system.mem_ctrls.bw_inst_read::.cpu.inst       982981                       # Instruction read bandwidth from this memory (bytes/s)
system.mem_ctrls.bw_inst_read::total           982981                       # Instruction read bandwidth from this memory (bytes/s)
system.mem_ctrls.bw_write::.writebacks        2837720                       # Write bandwidth from this memory (bytes/s)
system.mem_ctrls.bw_write::total              2837720                       # Write bandwidth from this memory (bytes/s)
system.mem_ctrls.bw_total::.writebacks        2837720                       # Total bandwidth to/from this memory (bytes/s)
system.mem_ctrls.bw_total::.cpu.inst           982981                       # Total bandwidth to/from this memory (bytes/s)
system.mem_ctrls.bw_total::.cpu.data         42099463                       # Total bandwidth to/from this memory (bytes/s)
system.mem_ctrls.bw_total::total             45920164                       # Total bandwidth to/from this memory (bytes/s)
system.mem_ctrls.avgPriority_.writebacks::samples     15155.00                       # Average QoS priority value for accepted requests
system.mem_ctrls.avgPriority_.cpu.inst::samples      7521.00                       # Average QoS priority value for accepted requests
system.mem_ctrls.avgPriority_.cpu.data::samples    319258.00                       # Average QoS priority value for accepted requests
system.mem_ctrls.priorityMinLatency      0.000000018750                       # per QoS priority minimum request to response latency (s)
system.mem_ctrls.priorityMaxLatency      0.008464806500                       # per QoS priority maximum request to response latency (s)
system.mem_ctrls.numReadWriteTurnArounds          855                       # Number of turnarounds from READ to WRITE
system.mem_ctrls.numWriteReadTurnArounds          855                       # Number of turnarounds from WRITE to READ
system.mem_ctrls.numStayReadState              700370                       # Number of times bus staying in READ state
system.mem_ctrls.numStayWriteState              14442                       # Number of times bus staying in WRITE state
system.mem_ctrls.readReqs                      329633                       # Number of read requests accepted
system.mem_ctrls.writeReqs                      21712                       # Number of write requests accepted
system.mem_ctrls.readBursts                    329633                       # Number of DRAM read bursts, including those serviced by the write queue
system.mem_ctrls.writeBursts                    21712                       # Number of DRAM write bursts, including those merged in the write queue
system.mem_ctrls.bytesReadDRAM               20913856                       # Total number of bytes read from DRAM
system.mem_ctrls.bytesReadWrQ                  182656                       # Total number of bytes read from write queue
system.mem_ctrls.bytesWritten                  968768                       # Total number of bytes written to DRAM
system.mem_ctrls.bytesReadSys                 5274128                       # Total read bytes from the system interface side
system.mem_ctrls.bytesWrittenSys               347392                       # Total written bytes from the system interface side
system.mem_ctrls.servicedByWrQ                   2854                       # Number of DRAM read bursts serviced by the write queue
system.mem_ctrls.mergedWrBursts                  6557                       # Number of DRAM write bursts merged with an existing one
system.mem_ctrls.neitherReadNorWriteReqs            0                       # Number of requests that are neither read nor write
system.mem_ctrls.perBankRdBursts::0             60691                       # Per bank write bursts
system.mem_ctrls.perBankRdBursts::1             62417                       # Per bank write bursts
system.mem_ctrls.perBankRdBursts::2             22281                       # Per bank write bursts
system.mem_ctrls.perBankRdBursts::3               584                       # Per bank write bursts
system.mem_ctrls.perBankRdBursts::4               937                       # Per bank write bursts
system.mem_ctrls.perBankRdBursts::5              3812                       # Per bank write bursts
system.mem_ctrls.perBankRdBursts::6              6946                       # Per bank write bursts
system.mem_ctrls.perBankRdBursts::7             18179                       # Per bank write bursts
system.mem_ctrls.perBankRdBursts::8               861                       # Per bank write bursts
system.mem_ctrls.perBankRdBursts::9               884                       # Per bank write bursts
system.mem_ctrls.perBankRdBursts::10              189                       # Per bank write bursts
system.mem_ctrls.perBankRdBursts::11              704                       # Per bank write bursts
system.mem_ctrls.perBankRdBursts::12              678                       # Per bank write bursts
system.mem_ctrls.perBankRdBursts::13            29357                       # Per bank write bursts
system.mem_ctrls.perBankRdBursts::14            58187                       # Per bank write bursts
system.mem_ctrls.perBankRdBursts::15            60072                       # Per bank write bursts
system.mem_ctrls.perBankWrBursts::0               287                       # Per bank write bursts
system.mem_ctrls.perBankWrBursts::1               276                       # Per bank write bursts
system.mem_ctrls.perBankWrBursts::2               425                       # Per bank write bursts
system.mem_ctrls.perBankWrBursts::3                15                       # Per bank write bursts
system.mem_ctrls.perBankWrBursts::4                22                       # Per bank write bursts
system.mem_ctrls.perBankWrBursts::5               237                       # Per bank write bursts
system.mem_ctrls.perBankWrBursts::6              3184                       # Per bank write bursts
system.mem_ctrls.perBankWrBursts::7              9854                       # Per bank write bursts
system.mem_ctrls.perBankWrBursts::8                 0                       # Per bank write bursts
system.mem_ctrls.perBankWrBursts::9                 0                       # Per bank write bursts
system.mem_ctrls.perBankWrBursts::10                0                       # Per bank write bursts
system.mem_ctrls.perBankWrBursts::11                0                       # Per bank write bursts
system.mem_ctrls.perBankWrBursts::12              113                       # Per bank write bursts
system.mem_ctrls.perBankWrBursts::13              223                       # Per bank write bursts
system.mem_ctrls.perBankWrBursts::14              259                       # Per bank write bursts
system.mem_ctrls.perBankWrBursts::15              242                       # Per bank write bursts
system.mem_ctrls.numRdRetry                         0                       # Number of times read queue was full causing retry
system.mem_ctrls.numWrRetry                         0                       # Number of times write queue was full causing retry
system.mem_ctrls.totGap                  122419344500                       # Total gap between requests
system.mem_ctrls.readPktSize::0                     0                       # Read request sizes (log2)
system.mem_ctrls.readPktSize::1                     0                       # Read request sizes (log2)
system.mem_ctrls.readPktSize::2                     0                       # Read request sizes (log2)
system.mem_ctrls.readPktSize::3                     0                       # Read request sizes (log2)
system.mem_ctrls.readPktSize::4                329633                       # Read request sizes (log2)
system.mem_ctrls.readPktSize::5                     0                       # Read request sizes (log2)
system.mem_ctrls.readPktSize::6                     0                       # Read request sizes (log2)
system.mem_ctrls.writePktSize::0                    0                       # Write request sizes (log2)
system.mem_ctrls.writePktSize::1                    0                       # Write request sizes (log2)
system.mem_ctrls.writePktSize::2                    0                       # Write request sizes (log2)
system.mem_ctrls.writePktSize::3                    0                       # Write request sizes (log2)
system.mem_ctrls.writePktSize::4                21712                       # Write request sizes (log2)
system.mem_ctrls.writePktSize::5                    0                       # Write request sizes (log2)
system.mem_ctrls.writePktSize::6                    0                       # Write request sizes (log2)
system.mem_ctrls.rdQLenPdf::0                  326708                       # What read queue length does an incoming req see
system.mem_ctrls.rdQLenPdf::1                      71                       # What read queue length does an incoming req see
system.mem_ctrls.rdQLenPdf::2                       0                       # What read queue length does an incoming req see
system.mem_ctrls.rdQLenPdf::3                       0                       # What read queue length does an incoming req see
system.mem_ctrls.rdQLenPdf::4                       0                       # What read queue length does an incoming req see
system.mem_ctrls.rdQLenPdf::5                       0                       # What read queue length does an incoming req see
system.mem_ctrls.rdQLenPdf::6                       0                       # What read queue length does an incoming req see
system.mem_ctrls.rdQLenPdf::7                       0                       # What read queue length does an incoming req see
system.mem_ctrls.rdQLenPdf::8                       0                       # What read queue length does an incoming req see
system.mem_ctrls.rdQLenPdf::9                       0                       # What read queue length does an incoming req see
system.mem_ctrls.rdQLenPdf::10                      0                       # What read queue length does an incoming req see
system.mem_ctrls.rdQLenPdf::11                      0                       # What read queue length does an incoming req see
system.mem_ctrls.rdQLenPdf::12                      0                       # What read queue length does an incoming req see
system.mem_ctrls.rdQLenPdf::13                      0                       # What read queue length does an incoming req see
system.mem_ctrls.rdQLenPdf::14                      0                       # What read queue length does an incoming req see
system.mem_ctrls.rdQLenPdf::15                      0                       # What read queue length does an incoming req see
system.mem_ctrls.rdQLenPdf::16                      0                       # What read queue length does an incoming req see
system.mem_ctrls.rdQLenPdf::17                      0                       # What read queue length does an incoming req see
system.mem_ctrls.rdQLenPdf::18                      0                       # What read queue length does an incoming req see
system.mem_ctrls.rdQLenPdf::19                      0                       # What read queue length does an incoming req see
system.mem_ctrls.rdQLenPdf::20                      0                       # What read queue length does an incoming req see
system.mem_ctrls.rdQLenPdf::21                      0                       # What read queue length does an incoming req see
system.mem_ctrls.rdQLenPdf::22                      0                       # What read queue length does an incoming req see
system.mem_ctrls.rdQLenPdf::23                      0                       # What read queue length does an incoming req see
system.mem_ctrls.rdQLenPdf::24                      0                       # What read queue length does an incoming req see
system.mem_ctrls.rdQLenPdf::25                      0                       # What read queue length does an incoming req see
system.mem_ctrls.rdQLenPdf::26                      0                       # What read queue length does an incoming req see
system.mem_ctrls.rdQLenPdf::27                      0                       # What read queue length does an incoming req see
system.mem_ctrls.rdQLenPdf::28                      0                       # What read queue length does an incoming req see
system.mem_ctrls.rdQLenPdf::29                      0                       # What read queue length does an incoming req see
system.mem_ctrls.rdQLenPdf::30                      0                       # What read queue length does an incoming req see
system.mem_ctrls.rdQLenPdf::31                      0                       # What read queue length does an incoming req see
system.mem_ctrls.wrQLenPdf::0                       1                       # What write queue length does an incoming req see
system.mem_ctrls.wrQLenPdf::1                       1                       # What write queue length does an incoming req see
system.mem_ctrls.wrQLenPdf::2                       1                       # What write queue length does an incoming req see
system.mem_ctrls.wrQLenPdf::3                       1                       # What write queue length does an incoming req see
system.mem_ctrls.wrQLenPdf::4                       1                       # What write queue length does an incoming req see
system.mem_ctrls.wrQLenPdf::5                       1                       # What write queue length does an incoming req see
system.mem_ctrls.wrQLenPdf::6                       1                       # What write queue length does an incoming req see
system.mem_ctrls.wrQLenPdf::7                       1                       # What write queue length does an incoming req see
system.mem_ctrls.wrQLenPdf::8                       1                       # What write queue length does an incoming req see
system.mem_ctrls.wrQLenPdf::9                       1                       # What write queue length does an incoming req see
system.mem_ctrls.wrQLenPdf::10                      1                       # What write queue length does an incoming req see
system.mem_ctrls.wrQLenPdf::11                      1                       # What write queue length does an incoming req see
system.mem_ctrls.wrQLenPdf::12                      1                       # What write queue length does an incoming req see
system.mem_ctrls.wrQLenPdf::13                      1                       # What write queue length does an incoming req see
system.mem_ctrls.wrQLenPdf::14                      1                       # What write queue length does an incoming req see
system.mem_ctrls.wrQLenPdf::15                    722                       # What write queue length does an incoming req see
system.mem_ctrls.wrQLenPdf::16                    730                       # What write queue length does an incoming req see
system.mem_ctrls.wrQLenPdf::17                    852                       # What write queue length does an incoming req see
system.mem_ctrls.wrQLenPdf::18                    855                       # What write queue length does an incoming req see
system.mem_ctrls.wrQLenPdf::19                    860                       # What write queue length does an incoming req see
system.mem_ctrls.wrQLenPdf::20                    855                       # What write queue length does an incoming req see
system.mem_ctrls.wrQLenPdf::21                    855                       # What write queue length does an incoming req see
system.mem_ctrls.wrQLenPdf::22                    855                       # What write queue length does an incoming req see
system.mem_ctrls.wrQLenPdf::23                    855                       # What write queue length does an incoming req see
system.mem_ctrls.wrQLenPdf::24                    855                       # What write queue length does an incoming req see
system.mem_ctrls.wrQLenPdf::25                    855                       # What write queue length does an incoming req see
system.mem_ctrls.wrQLenPdf::26                    857                       # What write queue length does an incoming req see
system.mem_ctrls.wrQLenPdf::27                    855                       # What write queue length does an incoming req see
system.mem_ctrls.wrQLenPdf::28                    855                       # What write queue length does an incoming req see
system.mem_ctrls.wrQLenPdf::29                    859                       # What write queue length does an incoming req see
system.mem_ctrls.wrQLenPdf::30                    855                       # What write queue length does an incoming req see
system.mem_ctrls.wrQLenPdf::31                    855                       # What write queue length does an incoming req see
system.mem_ctrls.wrQLenPdf::32                    855                       # What write queue length does an incoming req see
system.mem_ctrls.wrQLenPdf::33                      0                       # What write queue length does an incoming req see
system.mem_ctrls.wrQLenPdf::34                      0                       # What write queue length does an incoming req see
system.mem_ctrls.wrQLenPdf::35                      0                       # What write queue length does an incoming req see
system.mem_ctrls.wrQLenPdf::36                      0                       # What write queue length does an incoming req see
system.mem_ctrls.wrQLenPdf::37                      0                       # What write queue length does an incoming req see
system.mem_ctrls.wrQLenPdf::38                      0                       # What write queue length does an incoming req see
system.mem_ctrls.wrQLenPdf::39                      0                       # What write queue length does an incoming req see
system.mem_ctrls.wrQLenPdf::40                      0                       # What write queue length does an incoming req see
system.mem_ctrls.wrQLenPdf::41                      0                       # What write queue length does an incoming req see
system.mem_ctrls.wrQLenPdf::42                      0                       # What write queue length does an incoming req see
system.mem_ctrls.wrQLenPdf::43                      0                       # What write queue length does an incoming req see
system.mem_ctrls.wrQLenPdf::44                      0                       # What write queue length does an incoming req see
system.mem_ctrls.wrQLenPdf::45                      0                       # What write queue length does an incoming req see
system.mem_ctrls.wrQLenPdf::46                      0                       # What write queue length does an incoming req see
system.mem_ctrls.wrQLenPdf::47                      0                       # What write queue length does an incoming req see
system.mem_ctrls.wrQLenPdf::48                      0                       # What write queue length does an incoming req see
system.mem_ctrls.wrQLenPdf::49                      0                       # What write queue length does an incoming req see
system.mem_ctrls.wrQLenPdf::50                      0                       # What write queue length does an incoming req see
system.mem_ctrls.wrQLenPdf::51                      0                       # What write queue length does an incoming req see
system.mem_ctrls.wrQLenPdf::52                      0                       # What write queue length does an incoming req see
system.mem_ctrls.wrQLenPdf::53                      0                       # What write queue length does an incoming req see
system.mem_ctrls.wrQLenPdf::54                      0                       # What write queue length does an incoming req see
system.mem_ctrls.wrQLenPdf::55                      0                       # What write queue length does an incoming req see
system.mem_ctrls.wrQLenPdf::56                      0                       # What write queue length does an incoming req see
system.mem_ctrls.wrQLenPdf::57                      0                       # What write queue length does an incoming req see
system.mem_ctrls.wrQLenPdf::58                      0                       # What write queue length does an incoming req see
system.mem_ctrls.wrQLenPdf::59                      0                       # What write queue length does an incoming req see
system.mem_ctrls.wrQLenPdf::60                      0                       # What write queue length does an incoming req see
system.mem_ctrls.wrQLenPdf::61                      0                       # What write queue length does an incoming req see
system.mem_ctrls.wrQLenPdf::62                      0                       # What write queue length does an incoming req see
system.mem_ctrls.wrQLenPdf::63                      0                       # What write queue length does an incoming req see
system.mem_ctrls.bytesPerActivate::samples        45211                       # Bytes accessed per row activation
system.mem_ctrls.bytesPerActivate::mean    483.989825                       # Bytes accessed per row activation
system.mem_ctrls.bytesPerActivate::gmean   294.020307                       # Bytes accessed per row activation
system.mem_ctrls.bytesPerActivate::stdev   391.950495                       # Bytes accessed per row activation
system.mem_ctrls.bytesPerActivate::0-127        11584     25.62%     25.62% # Bytes accessed per row activation
system.mem_ctrls.bytesPerActivate::128-255         7375     16.31%     41.93% # Bytes accessed per row activation
system.mem_ctrls.bytesPerActivate::256-383         3156      6.98%     48.92% # Bytes accessed per row activation
system.mem_ctrls.bytesPerActivate::384-511         2434      5.38%     54.30% # Bytes accessed per row activation
system.mem_ctrls.bytesPerActivate::512-639         3081      6.81%     61.11% # Bytes accessed per row activation
system.mem_ctrls.bytesPerActivate::640-767         2884      6.38%     67.49% # Bytes accessed per row activation
system.mem_ctrls.bytesPerActivate::768-895         1857      4.11%     71.60% # Bytes accessed per row activation
system.mem_ctrls.bytesPerActivate::896-1023         1123      2.48%     74.08% # Bytes accessed per row activation
system.mem_ctrls.bytesPerActivate::1024-1151        11717     25.92%    100.00% # Bytes accessed per row activation
system.mem_ctrls.bytesPerActivate::total        45211                       # Bytes accessed per row activation
system.mem_ctrls.rdPerTurnAround::samples          855                       # Reads before turning the bus around for writes
system.mem_ctrls.rdPerTurnAround::mean     381.844444                       # Reads before turning the bus around for writes
system.mem_ctrls.rdPerTurnAround::gmean    222.540432                       # Reads before turning the bus around for writes
system.mem_ctrls.rdPerTurnAround::stdev    412.695421                       # Reads before turning the bus around for writes
system.mem_ctrls.rdPerTurnAround::0-255           409     47.84%     47.84% # Reads before turning the bus around for writes
system.mem_ctrls.rdPerTurnAround::256-511          202     23.63%     71.46% # Reads before turning the bus around for writes
system.mem_ctrls.rdPerTurnAround::512-767          152     17.78%     89.24% # Reads before turning the bus around for writes
system.mem_ctrls.rdPerTurnAround::768-1023           49      5.73%     94.97% # Reads before turning the bus around for writes
system.mem_ctrls.rdPerTurnAround::1024-1279           14      1.64%     96.61% # Reads before turning the bus around for writes
system.mem_ctrls.rdPerTurnAround::1280-1535           10      1.17%     97.78% # Reads before turning the bus around for writes
system.mem_ctrls.rdPerTurnAround::1536-1791            6      0.70%     98.48% # Reads before turning the bus around for writes
system.mem_ctrls.rdPerTurnAround::1792-2047            5      0.58%     99.06% # Reads before turning the bus around for writes
system.mem_ctrls.rdPerTurnAround::2048-2303            4      0.47%     99.53% # Reads before turning the bus around for writes
system.mem_ctrls.rdPerTurnAround::2304-2559            1      0.12%     99.65% # Reads before turning the bus around for writes
system.mem_ctrls.rdPerTurnAround::2560-2815            2      0.23%     99.88% # Reads before turning the bus around for writes
system.mem_ctrls.rdPerTurnAround::4864-5119            1      0.12%    100.00% # Reads before turning the bus around for writes
system.mem_ctrls.rdPerTurnAround::total           855                       # Reads before turning the bus around for writes
system.mem_ctrls.wrPerTurnAround::samples          855                       # Writes before turning the bus around for reads
system.mem_ctrls.wrPerTurnAround::mean      17.704094                       # Writes before turning the bus around for reads
system.mem_ctrls.wrPerTurnAround::gmean     17.688631                       # Writes before turning the bus around for reads
system.mem_ctrls.wrPerTurnAround::stdev      0.721155                       # Writes before turning the bus around for reads
system.mem_ctrls.wrPerTurnAround::16              126     14.74%     14.74% # Writes before turning the bus around for reads
system.mem_ctrls.wrPerTurnAround::17                8      0.94%     15.67% # Writes before turning the bus around for reads
system.mem_ctrls.wrPerTurnAround::18              714     83.51%     99.18% # Writes before turning the bus around for reads
system.mem_ctrls.wrPerTurnAround::19                7      0.82%    100.00% # Writes before turning the bus around for reads
system.mem_ctrls.wrPerTurnAround::total           855                       # Writes before turning the bus around for reads
system.mem_ctrls.masterReadBytes::.cpu.inst       120336                       # Per-master bytes read from memory
system.mem_ctrls.masterReadBytes::.cpu.data      5108128                       # Per-master bytes read from memory
system.mem_ctrls.masterWriteBytes::.writebacks       242192                       # Per-master bytes write to memory
system.mem_ctrls.masterReadRate::.cpu.inst 982981.274887160980                       # Per-master bytes read from memory rate (Bytes/sec)
system.mem_ctrls.masterReadRate::.cpu.data 41726450.719043374062                       # Per-master bytes read from memory rate (Bytes/sec)
system.mem_ctrls.masterWriteRate::.writebacks 1978378.880197707098                       # Per-master bytes write to memory rate (Bytes/sec)
system.mem_ctrls.masterReadAccesses::.cpu.inst         7521                       # Per-master read serviced memory accesses
system.mem_ctrls.masterReadAccesses::.cpu.data       322112                       # Per-master read serviced memory accesses
system.mem_ctrls.masterWriteAccesses::.writebacks        21712                       # Per-master write serviced memory accesses
system.mem_ctrls.masterReadTotalLat::.cpu.inst    242942750                       # Per-master read total memory access latency
system.mem_ctrls.masterReadTotalLat::.cpu.data  11493548750                       # Per-master read total memory access latency
system.mem_ctrls.masterWriteTotalLat::.writebacks 2939576736750                       # Per-master write total memory access latency
system.mem_ctrls.masterReadAvgLat::.cpu.inst     32301.92                       # Per-master read average memory access latency
system.mem_ctrls.masterReadAvgLat::.cpu.data     35681.84                       # Per-master read average memory access latency
system.mem_ctrls.masterWriteAvgLat::.writebacks 135389495.98                       # Per-master write average memory access latency
system.mem_ctrls.totQLat                   5609385250                       # Total ticks spent queuing
system.mem_ctrls.totMemAccLat             11736491500                       # Total ticks spent from burst creation until serviced by the DRAM
system.mem_ctrls.totBusLat                 1633895000                       # Total ticks spent in databus transfers
system.mem_ctrls.avgQLat                     17165.68                       # Average queueing delay per DRAM burst
system.mem_ctrls.avgBusLat                    5000.00                       # Average bus latency per DRAM burst
system.mem_ctrls.avgMemAccLat                35915.68                       # Average memory access latency per DRAM burst
system.mem_ctrls.avgRdBW                       170.84                       # Average DRAM read bandwidth in MiByte/s
system.mem_ctrls.avgWrBW                         7.91                       # Average achieved write bandwidth in MiByte/s
system.mem_ctrls.avgRdBWSys                     43.08                       # Average system read bandwidth in MiByte/s
system.mem_ctrls.avgWrBWSys                      2.84                       # Average system write bandwidth in MiByte/s
system.mem_ctrls.peakBW                      12800.00                       # Theoretical peak bandwidth in MiByte/s
system.mem_ctrls.busUtil                         1.40                       # Data bus utilization in percentage
system.mem_ctrls.busUtilRead                     1.33                       # Data bus utilization in percentage for reads
system.mem_ctrls.busUtilWrite                    0.06                       # Data bus utilization in percentage for writes
system.mem_ctrls.avgRdQLen                       1.00                       # Average read queue length when enqueuing
system.mem_ctrls.avgWrQLen                      24.88                       # Average write queue length when enqueuing
system.mem_ctrls.readRowHits                   282974                       # Number of row buffer hits during reads
system.mem_ctrls.writeRowHits                   13724                       # Number of row buffer hits during writes
system.mem_ctrls.readRowHitRate                 86.59                       # Row buffer hit rate for reads
system.mem_ctrls.writeRowHitRate                90.56                       # Row buffer hit rate for writes
system.mem_ctrls.avgGap                     348430.59                       # Average gap between requests
system.mem_ctrls.pageHitRate                    86.77                       # Row buffer hit rate, read and write combined
system.mem_ctrls_0.actEnergy                204518160                       # Energy for activate commands per rank (pJ)
system.mem_ctrls_0.preEnergy                108688800                       # Energy for precharge commands per rank (pJ)
system.mem_ctrls_0.readEnergy              1255547580                       # Energy for read commands per rank (pJ)
system.mem_ctrls_0.writeEnergy               74646000                       # Energy for write commands per rank (pJ)
system.mem_ctrls_0.refreshEnergy         9071471760.000002                       # Energy for refresh commands per rank (pJ)
system.mem_ctrls_0.actBackEnergy           4620907920                       # Energy for active background per rank (pJ)
system.mem_ctrls_0.preBackEnergy            353867520                       # Energy for precharge background per rank (pJ)
system.mem_ctrls_0.actPowerDownEnergy     32620895370                       # Energy for active power-down per rank (pJ)
system.mem_ctrls_0.prePowerDownEnergy     12573732000                       # Energy for precharge power-down per rank (pJ)
system.mem_ctrls_0.selfRefreshEnergy       2574710760                       # Energy for self refresh per rank (pJ)
system.mem_ctrls_0.totalEnergy            63468550350                       # Total energy per rank (pJ)
system.mem_ctrls_0.averagePower            518.451640                       # Core power per rank (mW)
system.mem_ctrls_0.totalIdleTime         111342972250                       # Total Idle time Per DRAM Rank
system.mem_ctrls_0.memoryStateTime::IDLE    526499500                       # Time in different power states
system.mem_ctrls_0.memoryStateTime::REF    3837340000                       # Time in different power states
system.mem_ctrls_0.memoryStateTime::SREF   7061886000                       # Time in different power states
system.mem_ctrls_0.memoryStateTime::PRE_PDN  32744029000                       # Time in different power states
system.mem_ctrls_0.memoryStateTime::ACT    6712392750                       # Time in different power states
system.mem_ctrls_0.memoryStateTime::ACT_PDN  71537275250                       # Time in different power states
system.mem_ctrls_1.actEnergy                118338360                       # Energy for activate commands per rank (pJ)
system.mem_ctrls_1.preEnergy                 62886945                       # Energy for precharge commands per rank (pJ)
system.mem_ctrls_1.readEnergy              1077654480                       # Energy for read commands per rank (pJ)
system.mem_ctrls_1.writeEnergy                4369140                       # Energy for write commands per rank (pJ)
system.mem_ctrls_1.refreshEnergy         6523788960.000001                       # Energy for refresh commands per rank (pJ)
system.mem_ctrls_1.actBackEnergy           3165366750                       # Energy for active background per rank (pJ)
system.mem_ctrls_1.preBackEnergy            345073920                       # Energy for precharge background per rank (pJ)
system.mem_ctrls_1.actPowerDownEnergy     22927999770                       # Energy for active power-down per rank (pJ)
system.mem_ctrls_1.prePowerDownEnergy      9607285920                       # Energy for precharge power-down per rank (pJ)
system.mem_ctrls_1.selfRefreshEnergy      10439893860                       # Energy for self refresh per rank (pJ)
system.mem_ctrls_1.totalEnergy            54278982855                       # Total energy per rank (pJ)
system.mem_ctrls_1.averagePower            443.385386                       # Core power per rank (mW)
system.mem_ctrls_1.totalIdleTime         114565209750                       # Total Idle time Per DRAM Rank
system.mem_ctrls_1.memoryStateTime::IDLE    584481500                       # Time in different power states
system.mem_ctrls_1.memoryStateTime::REF    2759640000                       # Time in different power states
system.mem_ctrls_1.memoryStateTime::SREF  39265523000                       # Time in different power states
system.mem_ctrls_1.memoryStateTime::PRE_PDN  25018965250                       # Time in different power states
system.mem_ctrls_1.memoryStateTime::ACT    4510049500                       # Time in different power states
system.mem_ctrls_1.memoryStateTime::ACT_PDN  50280763250                       # Time in different power states
system.pwrStateResidencyTicks::UNDEFINED 122419422500                       # Cumulative time (in ticks) in various power states
system.cpu_voltage_domain.voltage                   1                       # Voltage in Volts
system.cpu_clk_domain.clock                       500                       # Clock period in ticks
system.cpu.dstage2_mmu.stage2_tlb.walker.pwrStateResidencyTicks::UNDEFINED 122419422500                       # Cumulative time (in ticks) in various power states
system.cpu.dstage2_mmu.stage2_tlb.walker.walks            0                       # Table walker walks requested
system.cpu.dstage2_mmu.stage2_tlb.walker.walkRequestOrigin_Requested::Data            0                       # Table walker requests started/completed, data/inst
system.cpu.dstage2_mmu.stage2_tlb.walker.walkRequestOrigin_Requested::Inst            0                       # Table walker requests started/completed, data/inst
system.cpu.dstage2_mmu.stage2_tlb.walker.walkRequestOrigin_Requested::total            0                       # Table walker requests started/completed, data/inst
system.cpu.dstage2_mmu.stage2_tlb.walker.walkRequestOrigin_Completed::Data            0                       # Table walker requests started/completed, data/inst
system.cpu.dstage2_mmu.stage2_tlb.walker.walkRequestOrigin_Completed::Inst            0                       # Table walker requests started/completed, data/inst
system.cpu.dstage2_mmu.stage2_tlb.walker.walkRequestOrigin_Completed::total            0                       # Table walker requests started/completed, data/inst
system.cpu.dstage2_mmu.stage2_tlb.walker.walkRequestOrigin::total            0                       # Table walker requests started/completed, data/inst
system.cpu.dstage2_mmu.stage2_tlb.inst_hits            0                       # ITB inst hits
system.cpu.dstage2_mmu.stage2_tlb.inst_misses            0                       # ITB inst misses
system.cpu.dstage2_mmu.stage2_tlb.read_hits            0                       # DTB read hits
system.cpu.dstage2_mmu.stage2_tlb.read_misses            0                       # DTB read misses
system.cpu.dstage2_mmu.stage2_tlb.write_hits            0                       # DTB write hits
system.cpu.dstage2_mmu.stage2_tlb.write_misses            0                       # DTB write misses
system.cpu.dstage2_mmu.stage2_tlb.flush_tlb            0                       # Number of times complete TLB was flushed
system.cpu.dstage2_mmu.stage2_tlb.flush_tlb_mva            0                       # Number of times TLB was flushed by MVA
system.cpu.dstage2_mmu.stage2_tlb.flush_tlb_mva_asid            0                       # Number of times TLB was flushed by MVA & ASID
system.cpu.dstage2_mmu.stage2_tlb.flush_tlb_asid            0                       # Number of times TLB was flushed by ASID
system.cpu.dstage2_mmu.stage2_tlb.flush_entries            0                       # Number of entries that have been flushed from TLB
system.cpu.dstage2_mmu.stage2_tlb.align_faults            0                       # Number of TLB faults due to alignment restrictions
system.cpu.dstage2_mmu.stage2_tlb.prefetch_faults            0                       # Number of TLB faults due to prefetch
system.cpu.dstage2_mmu.stage2_tlb.domain_faults            0                       # Number of TLB faults due to domain restrictions
system.cpu.dstage2_mmu.stage2_tlb.perms_faults            0                       # Number of TLB faults due to permissions restrictions
system.cpu.dstage2_mmu.stage2_tlb.read_accesses            0                       # DTB read accesses
system.cpu.dstage2_mmu.stage2_tlb.write_accesses            0                       # DTB write accesses
system.cpu.dstage2_mmu.stage2_tlb.inst_accesses            0                       # ITB inst accesses
system.cpu.dstage2_mmu.stage2_tlb.hits              0                       # DTB hits
system.cpu.dstage2_mmu.stage2_tlb.misses            0                       # DTB misses
system.cpu.dstage2_mmu.stage2_tlb.accesses            0                       # DTB accesses
system.cpu.dtb.walker.pwrStateResidencyTicks::UNDEFINED 122419422500                       # Cumulative time (in ticks) in various power states
system.cpu.dtb.walker.walks                         0                       # Table walker walks requested
system.cpu.dtb.walker.walkRequestOrigin_Requested::Data            0                       # Table walker requests started/completed, data/inst
system.cpu.dtb.walker.walkRequestOrigin_Requested::Inst            0                       # Table walker requests started/completed, data/inst
system.cpu.dtb.walker.walkRequestOrigin_Requested::total            0                       # Table walker requests started/completed, data/inst
system.cpu.dtb.walker.walkRequestOrigin_Completed::Data            0                       # Table walker requests started/completed, data/inst
system.cpu.dtb.walker.walkRequestOrigin_Completed::Inst            0                       # Table walker requests started/completed, data/inst
system.cpu.dtb.walker.walkRequestOrigin_Completed::total            0                       # Table walker requests started/completed, data/inst
system.cpu.dtb.walker.walkRequestOrigin::total            0                       # Table walker requests started/completed, data/inst
system.cpu.dtb.inst_hits                            0                       # ITB inst hits
system.cpu.dtb.inst_misses                          0                       # ITB inst misses
system.cpu.dtb.read_hits                            0                       # DTB read hits
system.cpu.dtb.read_misses                          0                       # DTB read misses
system.cpu.dtb.write_hits                           0                       # DTB write hits
system.cpu.dtb.write_misses                         0                       # DTB write misses
system.cpu.dtb.flush_tlb                            0                       # Number of times complete TLB was flushed
system.cpu.dtb.flush_tlb_mva                        0                       # Number of times TLB was flushed by MVA
system.cpu.dtb.flush_tlb_mva_asid                   0                       # Number of times TLB was flushed by MVA & ASID
system.cpu.dtb.flush_tlb_asid                       0                       # Number of times TLB was flushed by ASID
system.cpu.dtb.flush_entries                        0                       # Number of entries that have been flushed from TLB
system.cpu.dtb.align_faults                         0                       # Number of TLB faults due to alignment restrictions
system.cpu.dtb.prefetch_faults                      0                       # Number of TLB faults due to prefetch
system.cpu.dtb.domain_faults                        0                       # Number of TLB faults due to domain restrictions
system.cpu.dtb.perms_faults                         0                       # Number of TLB faults due to permissions restrictions
system.cpu.dtb.read_accesses                        0                       # DTB read accesses
system.cpu.dtb.write_accesses                       0                       # DTB write accesses
system.cpu.dtb.inst_accesses                        0                       # ITB inst accesses
system.cpu.dtb.hits                                 0                       # DTB hits
system.cpu.dtb.misses                               0                       # DTB misses
system.cpu.dtb.accesses                             0                       # DTB accesses
system.cpu.istage2_mmu.stage2_tlb.walker.pwrStateResidencyTicks::UNDEFINED 122419422500                       # Cumulative time (in ticks) in various power states
system.cpu.istage2_mmu.stage2_tlb.walker.walks            0                       # Table walker walks requested
system.cpu.istage2_mmu.stage2_tlb.walker.walkRequestOrigin_Requested::Data            0                       # Table walker requests started/completed, data/inst
system.cpu.istage2_mmu.stage2_tlb.walker.walkRequestOrigin_Requested::Inst            0                       # Table walker requests started/completed, data/inst
system.cpu.istage2_mmu.stage2_tlb.walker.walkRequestOrigin_Requested::total            0                       # Table walker requests started/completed, data/inst
system.cpu.istage2_mmu.stage2_tlb.walker.walkRequestOrigin_Completed::Data            0                       # Table walker requests started/completed, data/inst
system.cpu.istage2_mmu.stage2_tlb.walker.walkRequestOrigin_Completed::Inst            0                       # Table walker requests started/completed, data/inst
system.cpu.istage2_mmu.stage2_tlb.walker.walkRequestOrigin_Completed::total            0                       # Table walker requests started/completed, data/inst
system.cpu.istage2_mmu.stage2_tlb.walker.walkRequestOrigin::total            0                       # Table walker requests started/completed, data/inst
system.cpu.istage2_mmu.stage2_tlb.inst_hits            0                       # ITB inst hits
system.cpu.istage2_mmu.stage2_tlb.inst_misses            0                       # ITB inst misses
system.cpu.istage2_mmu.stage2_tlb.read_hits            0                       # DTB read hits
system.cpu.istage2_mmu.stage2_tlb.read_misses            0                       # DTB read misses
system.cpu.istage2_mmu.stage2_tlb.write_hits            0                       # DTB write hits
system.cpu.istage2_mmu.stage2_tlb.write_misses            0                       # DTB write misses
system.cpu.istage2_mmu.stage2_tlb.flush_tlb            0                       # Number of times complete TLB was flushed
system.cpu.istage2_mmu.stage2_tlb.flush_tlb_mva            0                       # Number of times TLB was flushed by MVA
system.cpu.istage2_mmu.stage2_tlb.flush_tlb_mva_asid            0                       # Number of times TLB was flushed by MVA & ASID
system.cpu.istage2_mmu.stage2_tlb.flush_tlb_asid            0                       # Number of times TLB was flushed by ASID
system.cpu.istage2_mmu.stage2_tlb.flush_entries            0                       # Number of entries that have been flushed from TLB
system.cpu.istage2_mmu.stage2_tlb.align_faults            0                       # Number of TLB faults due to alignment restrictions
system.cpu.istage2_mmu.stage2_tlb.prefetch_faults            0                       # Number of TLB faults due to prefetch
system.cpu.istage2_mmu.stage2_tlb.domain_faults            0                       # Number of TLB faults due to domain restrictions
system.cpu.istage2_mmu.stage2_tlb.perms_faults            0                       # Number of TLB faults due to permissions restrictions
system.cpu.istage2_mmu.stage2_tlb.read_accesses            0                       # DTB read accesses
system.cpu.istage2_mmu.stage2_tlb.write_accesses            0                       # DTB write accesses
system.cpu.istage2_mmu.stage2_tlb.inst_accesses            0                       # ITB inst accesses
system.cpu.istage2_mmu.stage2_tlb.hits              0                       # DTB hits
system.cpu.istage2_mmu.stage2_tlb.misses            0                       # DTB misses
system.cpu.istage2_mmu.stage2_tlb.accesses            0                       # DTB accesses
system.cpu.itb.walker.pwrStateResidencyTicks::UNDEFINED 122419422500                       # Cumulative time (in ticks) in various power states
system.cpu.itb.walker.walks                         0                       # Table walker walks requested
system.cpu.itb.walker.walkRequestOrigin_Requested::Data            0                       # Table walker requests started/completed, data/inst
system.cpu.itb.walker.walkRequestOrigin_Requested::Inst            0                       # Table walker requests started/completed, data/inst
system.cpu.itb.walker.walkRequestOrigin_Requested::total            0                       # Table walker requests started/completed, data/inst
system.cpu.itb.walker.walkRequestOrigin_Completed::Data            0                       # Table walker requests started/completed, data/inst
system.cpu.itb.walker.walkRequestOrigin_Completed::Inst            0                       # Table walker requests started/completed, data/inst
system.cpu.itb.walker.walkRequestOrigin_Completed::total            0                       # Table walker requests started/completed, data/inst
system.cpu.itb.walker.walkRequestOrigin::total            0                       # Table walker requests started/completed, data/inst
system.cpu.itb.inst_hits                            0                       # ITB inst hits
system.cpu.itb.inst_misses                          0                       # ITB inst misses
system.cpu.itb.read_hits                            0                       # DTB read hits
system.cpu.itb.read_misses                          0                       # DTB read misses
system.cpu.itb.write_hits                           0                       # DTB write hits
system.cpu.itb.write_misses                         0                       # DTB write misses
system.cpu.itb.flush_tlb                            0                       # Number of times complete TLB was flushed
system.cpu.itb.flush_tlb_mva                        0                       # Number of times TLB was flushed by MVA
system.cpu.itb.flush_tlb_mva_asid                   0                       # Number of times TLB was flushed by MVA & ASID
system.cpu.itb.flush_tlb_asid                       0                       # Number of times TLB was flushed by ASID
system.cpu.itb.flush_entries                        0                       # Number of entries that have been flushed from TLB
system.cpu.itb.align_faults                         0                       # Number of TLB faults due to alignment restrictions
system.cpu.itb.prefetch_faults                      0                       # Number of TLB faults due to prefetch
system.cpu.itb.domain_faults                        0                       # Number of TLB faults due to domain restrictions
system.cpu.itb.perms_faults                         0                       # Number of TLB faults due to permissions restrictions
system.cpu.itb.read_accesses                        0                       # DTB read accesses
system.cpu.itb.write_accesses                       0                       # DTB write accesses
system.cpu.itb.inst_accesses                        0                       # ITB inst accesses
system.cpu.itb.hits                                 0                       # DTB hits
system.cpu.itb.misses                               0                       # DTB misses
system.cpu.itb.accesses                             0                       # DTB accesses
system.cpu.workload.numSyscalls                   239                       # Number of system calls
system.cpu.pwrStateResidencyTicks::ON    122419422500                       # Cumulative time (in ticks) in various power states
system.cpu.numCycles                        244838845                       # number of cpu cycles simulated
system.cpu.numWorkItemsStarted                      0                       # number of work items this cpu started
system.cpu.numWorkItemsCompleted                    0                       # number of work items this cpu completed
system.cpu.committedInsts                    43681711                       # Number of instructions committed
system.cpu.committedOps                      46438296                       # Number of ops (including micro ops) committed
system.cpu.num_int_alu_accesses              36551152                       # Number of integer alu accesses
system.cpu.num_fp_alu_accesses                     16                       # Number of float alu accesses
system.cpu.num_vec_alu_accesses                     0                       # Number of vector alu accesses
system.cpu.num_func_calls                      479840                       # number of times a function call or return occured
system.cpu.num_conditional_control_insts      9756863                       # number of instructions that are conditional controls
system.cpu.num_int_insts                     36551152                       # number of integer instructions
system.cpu.num_fp_insts                            16                       # number of float instructions
system.cpu.num_vec_insts                            0                       # number of vector instructions
system.cpu.num_int_register_reads            62405820                       # number of times the integer registers were read
system.cpu.num_int_register_writes           21331323                       # number of times the integer registers were written
system.cpu.num_fp_register_reads                   16                       # number of times the floating registers were read
system.cpu.num_fp_register_writes                   0                       # number of times the floating registers were written
system.cpu.num_vec_register_reads                   0                       # number of times the vector registers were read
system.cpu.num_vec_register_writes                  0                       # number of times the vector registers were written
system.cpu.num_cc_register_reads            167328399                       # number of times the CC registers were read
system.cpu.num_cc_register_writes            30215580                       # number of times the CC registers were written
system.cpu.num_mem_refs                      14199997                       # number of memory refs
system.cpu.num_load_insts                     9180679                       # Number of load instructions
system.cpu.num_store_insts                    5019318                       # Number of store instructions
system.cpu.num_idle_cycles                          0                       # Number of idle cycles
system.cpu.num_busy_cycles                  244838845                       # Number of busy cycles
system.cpu.not_idle_fraction                        1                       # Percentage of non-idle cycles
system.cpu.idle_fraction                            0                       # Percentage of idle cycles
system.cpu.Branches                          10612420                       # Number of branches fetched
system.cpu.op_class::No_OpClass                     0      0.00%      0.00% # Class of executed instruction
system.cpu.op_class::IntAlu                  32367985     69.48%     69.48% # Class of executed instruction
system.cpu.op_class::IntMult                    19468      0.04%     69.52% # Class of executed instruction
system.cpu.op_class::IntDiv                         0      0.00%     69.52% # Class of executed instruction
system.cpu.op_class::FloatAdd                       0      0.00%     69.52% # Class of executed instruction
system.cpu.op_class::FloatCmp                       0      0.00%     69.52% # Class of executed instruction
system.cpu.op_class::FloatCvt                       0      0.00%     69.52% # Class of executed instruction
system.cpu.op_class::FloatMult                      0      0.00%     69.52% # Class of executed instruction
system.cpu.op_class::FloatMultAcc                   0      0.00%     69.52% # Class of executed instruction
system.cpu.op_class::FloatDiv                       0      0.00%     69.52% # Class of executed instruction
system.cpu.op_class::FloatMisc                      0      0.00%     69.52% # Class of executed instruction
system.cpu.op_class::FloatSqrt                      0      0.00%     69.52% # Class of executed instruction
system.cpu.op_class::SimdAdd                        0      0.00%     69.52% # Class of executed instruction
system.cpu.op_class::SimdAddAcc                     0      0.00%     69.52% # Class of executed instruction
system.cpu.op_class::SimdAlu                        0      0.00%     69.52% # Class of executed instruction
system.cpu.op_class::SimdCmp                        0      0.00%     69.52% # Class of executed instruction
system.cpu.op_class::SimdCvt                        0      0.00%     69.52% # Class of executed instruction
system.cpu.op_class::SimdMisc                       0      0.00%     69.52% # Class of executed instruction
system.cpu.op_class::SimdMult                       0      0.00%     69.52% # Class of executed instruction
system.cpu.op_class::SimdMultAcc                    0      0.00%     69.52% # Class of executed instruction
system.cpu.op_class::SimdShift                      0      0.00%     69.52% # Class of executed instruction
system.cpu.op_class::SimdShiftAcc                   0      0.00%     69.52% # Class of executed instruction
system.cpu.op_class::SimdSqrt                       0      0.00%     69.52% # Class of executed instruction
system.cpu.op_class::SimdFloatAdd                   0      0.00%     69.52% # Class of executed instruction
system.cpu.op_class::SimdFloatAlu                   0      0.00%     69.52% # Class of executed instruction
system.cpu.op_class::SimdFloatCmp                   0      0.00%     69.52% # Class of executed instruction
system.cpu.op_class::SimdFloatCvt                   0      0.00%     69.52% # Class of executed instruction
system.cpu.op_class::SimdFloatDiv                   0      0.00%     69.52% # Class of executed instruction
system.cpu.op_class::SimdFloatMisc                  0      0.00%     69.52% # Class of executed instruction
system.cpu.op_class::SimdFloatMult                  0      0.00%     69.52% # Class of executed instruction
system.cpu.op_class::SimdFloatMultAcc               0      0.00%     69.52% # Class of executed instruction
system.cpu.op_class::SimdFloatSqrt                  0      0.00%     69.52% # Class of executed instruction
system.cpu.op_class::MemRead                  9180679     19.71%     89.23% # Class of executed instruction
system.cpu.op_class::MemWrite                 5019302     10.77%    100.00% # Class of executed instruction
system.cpu.op_class::FloatMemRead                   0      0.00%    100.00% # Class of executed instruction
system.cpu.op_class::FloatMemWrite                 16      0.00%    100.00% # Class of executed instruction
system.cpu.op_class::IprAccess                      0      0.00%    100.00% # Class of executed instruction
system.cpu.op_class::InstPrefetch                   0      0.00%    100.00% # Class of executed instruction
system.cpu.op_class::total                   46587450                       # Class of executed instruction
system.cpu.dcache.tags.pwrStateResidencyTicks::UNDEFINED 122419422500                       # Cumulative time (in ticks) in various power states
system.cpu.dcache.tags.tagsinuse           255.925286                       # Cycle average of tags in use
system.cpu.dcache.tags.total_refs            14162918                       # Total number of references to valid blocks.
system.cpu.dcache.tags.sampled_refs           1314143                       # Sample count of references to valid blocks.
system.cpu.dcache.tags.avg_refs             10.777304                       # Average number of references to valid blocks.
system.cpu.dcache.tags.warmup_cycle            258500                       # Cycle when the warmup percentage was hit.
system.cpu.dcache.tags.occ_blocks::.cpu.data   255.925286                       # Average occupied blocks per requestor
system.cpu.dcache.tags.occ_percent::.cpu.data     0.999708                       # Average percentage of cache occupancy
system.cpu.dcache.tags.occ_percent::total     0.999708                       # Average percentage of cache occupancy
system.cpu.dcache.tags.occ_task_id_blocks::1024          256                       # Occupied blocks per task id
system.cpu.dcache.tags.age_task_id_blocks_1024::0           26                       # Occupied blocks per task id
system.cpu.dcache.tags.age_task_id_blocks_1024::1          156                       # Occupied blocks per task id
system.cpu.dcache.tags.age_task_id_blocks_1024::2           33                       # Occupied blocks per task id
system.cpu.dcache.tags.age_task_id_blocks_1024::3           41                       # Occupied blocks per task id
system.cpu.dcache.tags.occ_task_id_percent::1024            1                       # Percentage of cache occupancy per task id
system.cpu.dcache.tags.tag_accesses          57965815                       # Number of tag accesses
system.cpu.dcache.tags.data_accesses         57965815                       # Number of data accesses
system.cpu.dcache.pwrStateResidencyTicks::UNDEFINED 122419422500                       # Cumulative time (in ticks) in various power states
system.cpu.dcache.ReadReq_hits::.cpu.data      7841903                       # number of ReadReq hits
system.cpu.dcache.ReadReq_hits::total         7841903                       # number of ReadReq hits
system.cpu.dcache.WriteReq_hits::.cpu.data      4816412                       # number of WriteReq hits
system.cpu.dcache.WriteReq_hits::total        4816412                       # number of WriteReq hits
system.cpu.dcache.LoadLockedReq_hits::.cpu.data        95230                       # number of LoadLockedReq hits
system.cpu.dcache.LoadLockedReq_hits::total        95230                       # number of LoadLockedReq hits
system.cpu.dcache.StoreCondReq_hits::.cpu.data        95230                       # number of StoreCondReq hits
system.cpu.dcache.StoreCondReq_hits::total        95230                       # number of StoreCondReq hits
system.cpu.dcache.demand_hits::.cpu.data     12658315                       # number of demand (read+write) hits
system.cpu.dcache.demand_hits::total         12658315                       # number of demand (read+write) hits
system.cpu.dcache.overall_hits::.cpu.data     12658315                       # number of overall hits
system.cpu.dcache.overall_hits::total        12658315                       # number of overall hits
system.cpu.dcache.ReadReq_misses::.cpu.data      1268156                       # number of ReadReq misses
system.cpu.dcache.ReadReq_misses::total       1268156                       # number of ReadReq misses
system.cpu.dcache.WriteReq_misses::.cpu.data        45987                       # number of WriteReq misses
system.cpu.dcache.WriteReq_misses::total        45987                       # number of WriteReq misses
system.cpu.dcache.demand_misses::.cpu.data      1314143                       # number of demand (read+write) misses
system.cpu.dcache.demand_misses::total        1314143                       # number of demand (read+write) misses
system.cpu.dcache.overall_misses::.cpu.data      1314143                       # number of overall misses
system.cpu.dcache.overall_misses::total       1314143                       # number of overall misses
system.cpu.dcache.ReadReq_miss_latency::.cpu.data  40181425000                       # number of ReadReq miss cycles
system.cpu.dcache.ReadReq_miss_latency::total  40181425000                       # number of ReadReq miss cycles
system.cpu.dcache.WriteReq_miss_latency::.cpu.data   1341649000                       # number of WriteReq miss cycles
system.cpu.dcache.WriteReq_miss_latency::total   1341649000                       # number of WriteReq miss cycles
system.cpu.dcache.demand_miss_latency::.cpu.data  41523074000                       # number of demand (read+write) miss cycles
system.cpu.dcache.demand_miss_latency::total  41523074000                       # number of demand (read+write) miss cycles
system.cpu.dcache.overall_miss_latency::.cpu.data  41523074000                       # number of overall miss cycles
system.cpu.dcache.overall_miss_latency::total  41523074000                       # number of overall miss cycles
system.cpu.dcache.ReadReq_accesses::.cpu.data      9110059                       # number of ReadReq accesses(hits+misses)
system.cpu.dcache.ReadReq_accesses::total      9110059                       # number of ReadReq accesses(hits+misses)
system.cpu.dcache.WriteReq_accesses::.cpu.data      4862399                       # number of WriteReq accesses(hits+misses)
system.cpu.dcache.WriteReq_accesses::total      4862399                       # number of WriteReq accesses(hits+misses)
system.cpu.dcache.LoadLockedReq_accesses::.cpu.data        95230                       # number of LoadLockedReq accesses(hits+misses)
system.cpu.dcache.LoadLockedReq_accesses::total        95230                       # number of LoadLockedReq accesses(hits+misses)
system.cpu.dcache.StoreCondReq_accesses::.cpu.data        95230                       # number of StoreCondReq accesses(hits+misses)
system.cpu.dcache.StoreCondReq_accesses::total        95230                       # number of StoreCondReq accesses(hits+misses)
system.cpu.dcache.demand_accesses::.cpu.data     13972458                       # number of demand (read+write) accesses
system.cpu.dcache.demand_accesses::total     13972458                       # number of demand (read+write) accesses
system.cpu.dcache.overall_accesses::.cpu.data     13972458                       # number of overall (read+write) accesses
system.cpu.dcache.overall_accesses::total     13972458                       # number of overall (read+write) accesses
system.cpu.dcache.ReadReq_miss_rate::.cpu.data     0.139204                       # miss rate for ReadReq accesses
system.cpu.dcache.ReadReq_miss_rate::total     0.139204                       # miss rate for ReadReq accesses
system.cpu.dcache.WriteReq_miss_rate::.cpu.data     0.009458                       # miss rate for WriteReq accesses
system.cpu.dcache.WriteReq_miss_rate::total     0.009458                       # miss rate for WriteReq accesses
system.cpu.dcache.demand_miss_rate::.cpu.data     0.094052                       # miss rate for demand accesses
system.cpu.dcache.demand_miss_rate::total     0.094052                       # miss rate for demand accesses
system.cpu.dcache.overall_miss_rate::.cpu.data     0.094052                       # miss rate for overall accesses
system.cpu.dcache.overall_miss_rate::total     0.094052                       # miss rate for overall accesses
system.cpu.dcache.ReadReq_avg_miss_latency::.cpu.data 31684.922833                       # average ReadReq miss latency
system.cpu.dcache.ReadReq_avg_miss_latency::total 31684.922833                       # average ReadReq miss latency
system.cpu.dcache.WriteReq_avg_miss_latency::.cpu.data 29174.527584                       # average WriteReq miss latency
system.cpu.dcache.WriteReq_avg_miss_latency::total 29174.527584                       # average WriteReq miss latency
system.cpu.dcache.demand_avg_miss_latency::.cpu.data 31597.074291                       # average overall miss latency
system.cpu.dcache.demand_avg_miss_latency::total 31597.074291                       # average overall miss latency
system.cpu.dcache.overall_avg_miss_latency::.cpu.data 31597.074291                       # average overall miss latency
system.cpu.dcache.overall_avg_miss_latency::total 31597.074291                       # average overall miss latency
system.cpu.dcache.blocked_cycles::no_mshrs            0                       # number of cycles access was blocked
system.cpu.dcache.blocked_cycles::no_targets            0                       # number of cycles access was blocked
system.cpu.dcache.blocked::no_mshrs                 0                       # number of cycles access was blocked
system.cpu.dcache.blocked::no_targets               0                       # number of cycles access was blocked
system.cpu.dcache.avg_blocked_cycles::no_mshrs          nan                       # average number of cycles each access was blocked
system.cpu.dcache.avg_blocked_cycles::no_targets          nan                       # average number of cycles each access was blocked
system.cpu.dcache.writebacks::.writebacks       773243                       # number of writebacks
system.cpu.dcache.writebacks::total            773243                       # number of writebacks
system.cpu.dcache.ReadReq_mshr_misses::.cpu.data      1268156                       # number of ReadReq MSHR misses
system.cpu.dcache.ReadReq_mshr_misses::total      1268156                       # number of ReadReq MSHR misses
system.cpu.dcache.WriteReq_mshr_misses::.cpu.data        45987                       # number of WriteReq MSHR misses
system.cpu.dcache.WriteReq_mshr_misses::total        45987                       # number of WriteReq MSHR misses
system.cpu.dcache.demand_mshr_misses::.cpu.data      1314143                       # number of demand (read+write) MSHR misses
system.cpu.dcache.demand_mshr_misses::total      1314143                       # number of demand (read+write) MSHR misses
system.cpu.dcache.overall_mshr_misses::.cpu.data      1314143                       # number of overall MSHR misses
system.cpu.dcache.overall_mshr_misses::total      1314143                       # number of overall MSHR misses
system.cpu.dcache.ReadReq_mshr_miss_latency::.cpu.data  38913269000                       # number of ReadReq MSHR miss cycles
system.cpu.dcache.ReadReq_mshr_miss_latency::total  38913269000                       # number of ReadReq MSHR miss cycles
system.cpu.dcache.WriteReq_mshr_miss_latency::.cpu.data   1295662000                       # number of WriteReq MSHR miss cycles
system.cpu.dcache.WriteReq_mshr_miss_latency::total   1295662000                       # number of WriteReq MSHR miss cycles
system.cpu.dcache.demand_mshr_miss_latency::.cpu.data  40208931000                       # number of demand (read+write) MSHR miss cycles
system.cpu.dcache.demand_mshr_miss_latency::total  40208931000                       # number of demand (read+write) MSHR miss cycles
system.cpu.dcache.overall_mshr_miss_latency::.cpu.data  40208931000                       # number of overall MSHR miss cycles
system.cpu.dcache.overall_mshr_miss_latency::total  40208931000                       # number of overall MSHR miss cycles
system.cpu.dcache.ReadReq_mshr_miss_rate::.cpu.data     0.139204                       # mshr miss rate for ReadReq accesses
system.cpu.dcache.ReadReq_mshr_miss_rate::total     0.139204                       # mshr miss rate for ReadReq accesses
system.cpu.dcache.WriteReq_mshr_miss_rate::.cpu.data     0.009458                       # mshr miss rate for WriteReq accesses
system.cpu.dcache.WriteReq_mshr_miss_rate::total     0.009458                       # mshr miss rate for WriteReq accesses
system.cpu.dcache.demand_mshr_miss_rate::.cpu.data     0.094052                       # mshr miss rate for demand accesses
system.cpu.dcache.demand_mshr_miss_rate::total     0.094052                       # mshr miss rate for demand accesses
system.cpu.dcache.overall_mshr_miss_rate::.cpu.data     0.094052                       # mshr miss rate for overall accesses
system.cpu.dcache.overall_mshr_miss_rate::total     0.094052                       # mshr miss rate for overall accesses
system.cpu.dcache.ReadReq_avg_mshr_miss_latency::.cpu.data 30684.922833                       # average ReadReq mshr miss latency
system.cpu.dcache.ReadReq_avg_mshr_miss_latency::total 30684.922833                       # average ReadReq mshr miss latency
system.cpu.dcache.WriteReq_avg_mshr_miss_latency::.cpu.data 28174.527584                       # average WriteReq mshr miss latency
system.cpu.dcache.WriteReq_avg_mshr_miss_latency::total 28174.527584                       # average WriteReq mshr miss latency
system.cpu.dcache.demand_avg_mshr_miss_latency::.cpu.data 30597.074291                       # average overall mshr miss latency
system.cpu.dcache.demand_avg_mshr_miss_latency::total 30597.074291                       # average overall mshr miss latency
system.cpu.dcache.overall_avg_mshr_miss_latency::.cpu.data 30597.074291                       # average overall mshr miss latency
system.cpu.dcache.overall_avg_mshr_miss_latency::total 30597.074291                       # average overall mshr miss latency
system.cpu.dcache.replacements                1313887                       # number of replacements
system.cpu.icache.tags.pwrStateResidencyTicks::UNDEFINED 122419422500                       # Cumulative time (in ticks) in various power states
system.cpu.icache.tags.tagsinuse           127.977680                       # Cycle average of tags in use
system.cpu.icache.tags.total_refs            43814015                       # Total number of references to valid blocks.
system.cpu.icache.tags.sampled_refs           1978267                       # Sample count of references to valid blocks.
system.cpu.icache.tags.avg_refs             22.147675                       # Average number of references to valid blocks.
system.cpu.icache.tags.warmup_cycle             87500                       # Cycle when the warmup percentage was hit.
system.cpu.icache.tags.occ_blocks::.cpu.inst   127.977680                       # Average occupied blocks per requestor
system.cpu.icache.tags.occ_percent::.cpu.inst     0.999826                       # Average percentage of cache occupancy
system.cpu.icache.tags.occ_percent::total     0.999826                       # Average percentage of cache occupancy
system.cpu.icache.tags.occ_task_id_blocks::1024          128                       # Occupied blocks per task id
system.cpu.icache.tags.age_task_id_blocks_1024::0           57                       # Occupied blocks per task id
system.cpu.icache.tags.age_task_id_blocks_1024::1           59                       # Occupied blocks per task id
system.cpu.icache.tags.age_task_id_blocks_1024::3            1                       # Occupied blocks per task id
system.cpu.icache.tags.age_task_id_blocks_1024::4           11                       # Occupied blocks per task id
system.cpu.icache.tags.occ_task_id_percent::1024            1                       # Percentage of cache occupancy per task id
system.cpu.icache.tags.tag_accesses          45792282                       # Number of tag accesses
system.cpu.icache.tags.data_accesses         45792282                       # Number of data accesses
system.cpu.icache.pwrStateResidencyTicks::UNDEFINED 122419422500                       # Cumulative time (in ticks) in various power states
system.cpu.icache.ReadReq_hits::.cpu.inst     41835748                       # number of ReadReq hits
system.cpu.icache.ReadReq_hits::total        41835748                       # number of ReadReq hits
system.cpu.icache.demand_hits::.cpu.inst     41835748                       # number of demand (read+write) hits
system.cpu.icache.demand_hits::total         41835748                       # number of demand (read+write) hits
system.cpu.icache.overall_hits::.cpu.inst     41835748                       # number of overall hits
system.cpu.icache.overall_hits::total        41835748                       # number of overall hits
system.cpu.icache.ReadReq_misses::.cpu.inst      1978267                       # number of ReadReq misses
system.cpu.icache.ReadReq_misses::total       1978267                       # number of ReadReq misses
system.cpu.icache.demand_misses::.cpu.inst      1978267                       # number of demand (read+write) misses
system.cpu.icache.demand_misses::total        1978267                       # number of demand (read+write) misses
system.cpu.icache.overall_misses::.cpu.inst      1978267                       # number of overall misses
system.cpu.icache.overall_misses::total       1978267                       # number of overall misses
system.cpu.icache.ReadReq_miss_latency::.cpu.inst  26274037500                       # number of ReadReq miss cycles
system.cpu.icache.ReadReq_miss_latency::total  26274037500                       # number of ReadReq miss cycles
system.cpu.icache.demand_miss_latency::.cpu.inst  26274037500                       # number of demand (read+write) miss cycles
system.cpu.icache.demand_miss_latency::total  26274037500                       # number of demand (read+write) miss cycles
system.cpu.icache.overall_miss_latency::.cpu.inst  26274037500                       # number of overall miss cycles
system.cpu.icache.overall_miss_latency::total  26274037500                       # number of overall miss cycles
system.cpu.icache.ReadReq_accesses::.cpu.inst     43814015                       # number of ReadReq accesses(hits+misses)
system.cpu.icache.ReadReq_accesses::total     43814015                       # number of ReadReq accesses(hits+misses)
system.cpu.icache.demand_accesses::.cpu.inst     43814015                       # number of demand (read+write) accesses
system.cpu.icache.demand_accesses::total     43814015                       # number of demand (read+write) accesses
system.cpu.icache.overall_accesses::.cpu.inst     43814015                       # number of overall (read+write) accesses
system.cpu.icache.overall_accesses::total     43814015                       # number of overall (read+write) accesses
system.cpu.icache.ReadReq_miss_rate::.cpu.inst     0.045151                       # miss rate for ReadReq accesses
system.cpu.icache.ReadReq_miss_rate::total     0.045151                       # miss rate for ReadReq accesses
system.cpu.icache.demand_miss_rate::.cpu.inst     0.045151                       # miss rate for demand accesses
system.cpu.icache.demand_miss_rate::total     0.045151                       # miss rate for demand accesses
system.cpu.icache.overall_miss_rate::.cpu.inst     0.045151                       # miss rate for overall accesses
system.cpu.icache.overall_miss_rate::total     0.045151                       # miss rate for overall accesses
system.cpu.icache.ReadReq_avg_miss_latency::.cpu.inst 13281.340436                       # average ReadReq miss latency
[...]
system.l2.ReadCleanReq_accesses::.cpu.inst      1978267                       # number of ReadCleanReq accesses(hits+misses)
system.l2.ReadCleanReq_accesses::total        1978267                       # number of ReadCleanReq accesses(hits+misses)
system.l2.ReadSharedReq_accesses::.cpu.data      1268156                       # number of ReadSharedReq accesses(hits+misses)
system.l2.ReadSharedReq_accesses::total       1268156                       # number of ReadSharedReq accesses(hits+misses)
system.l2.demand_accesses::.cpu.inst          1978267                       # number of demand (read+write) accesses
system.l2.demand_accesses::.cpu.data          1314143                       # number of demand (read+write) accesses
system.l2.demand_accesses::total              3292410                       # number of demand (read+write) accesses
system.l2.overall_accesses::.cpu.inst         1978267                       # number of overall (read+write) accesses
system.l2.overall_accesses::.cpu.data         1314143                       # number of overall (read+write) accesses
system.l2.overall_accesses::total             3292410                       # number of overall (read+write) accesses
system.l2.ReadExReq_miss_rate::.cpu.data     0.129689                       # miss rate for ReadExReq accesses
system.l2.ReadExReq_miss_rate::total         0.129689                       # miss rate for ReadExReq accesses
system.l2.ReadCleanReq_miss_rate::.cpu.inst     0.003802                       # miss rate for ReadCleanReq accesses
system.l2.ReadCleanReq_miss_rate::total      0.003802                       # miss rate for ReadCleanReq accesses
system.l2.ReadSharedReq_miss_rate::.cpu.data     0.249297                       # miss rate for ReadSharedReq accesses
system.l2.ReadSharedReq_miss_rate::total     0.249297                       # miss rate for ReadSharedReq accesses
system.l2.demand_miss_rate::.cpu.inst        0.003802                       # miss rate for demand accesses
system.l2.demand_miss_rate::.cpu.data        0.245112                       # miss rate for demand accesses
system.l2.demand_miss_rate::total            0.100119                       # miss rate for demand accesses
system.l2.overall_miss_rate::.cpu.inst       0.003802                       # miss rate for overall accesses
system.l2.overall_miss_rate::.cpu.data       0.245112                       # miss rate for overall accesses
system.l2.overall_miss_rate::total           0.100119                       # miss rate for overall accesses
system.l2.ReadExReq_avg_miss_latency::.cpu.data 135217.974514                       # average ReadExReq miss latency
system.l2.ReadExReq_avg_miss_latency::total 135217.974514                       # average ReadExReq miss latency
system.l2.ReadCleanReq_avg_miss_latency::.cpu.inst 83113.149847                       # average ReadCleanReq miss latency
system.l2.ReadCleanReq_avg_miss_latency::total 83113.149847                       # average ReadCleanReq miss latency
system.l2.ReadSharedReq_avg_miss_latency::.cpu.data 85450.179979                       # average ReadSharedReq miss latency
system.l2.ReadSharedReq_avg_miss_latency::total 85450.179979                       # average ReadSharedReq miss latency
system.l2.demand_avg_miss_latency::.cpu.inst 83113.149847                       # average overall miss latency
system.l2.demand_avg_miss_latency::.cpu.data 86371.645577                       # average overall miss latency
system.l2.demand_avg_miss_latency::total 86297.298814                       # average overall miss latency
system.l2.overall_avg_miss_latency::.cpu.inst 83113.149847                       # average overall miss latency
system.l2.overall_avg_miss_latency::.cpu.data 86371.645577                       # average overall miss latency
system.l2.overall_avg_miss_latency::total 86297.298814                       # average overall miss latency
system.l2.blocked_cycles::no_mshrs                  0                       # number of cycles access was blocked
system.l2.blocked_cycles::no_targets                0                       # number of cycles access was blocked
system.l2.blocked::no_mshrs                         0                       # number of cycles access was blocked
system.l2.blocked::no_targets                       0                       # number of cycles access was blocked
system.l2.avg_blocked_cycles::no_mshrs            nan                       # average number of cycles each access was blocked
system.l2.avg_blocked_cycles::no_targets          nan                       # average number of cycles each access was blocked
system.l2.writebacks::.writebacks               21712                       # number of writebacks
system.l2.writebacks::total                     21712                       # number of writebacks
system.l2.CleanEvict_mshr_misses::.writebacks         1303                       # number of CleanEvict MSHR misses
system.l2.CleanEvict_mshr_misses::total          1303                       # number of CleanEvict MSHR misses
system.l2.ReadExReq_mshr_misses::.cpu.data         5964                       # number of ReadExReq MSHR misses
system.l2.ReadExReq_mshr_misses::total           5964                       # number of ReadExReq MSHR misses
system.l2.ReadCleanReq_mshr_misses::.cpu.inst         7521                       # number of ReadCleanReq MSHR misses
system.l2.ReadCleanReq_mshr_misses::total         7521                       # number of ReadCleanReq MSHR misses
system.l2.ReadSharedReq_mshr_misses::.cpu.data       316148                       # number of ReadSharedReq MSHR misses
system.l2.ReadSharedReq_mshr_misses::total       316148                       # number of ReadSharedReq MSHR misses
system.l2.demand_mshr_misses::.cpu.inst          7521                       # number of demand (read+write) MSHR misses
system.l2.demand_mshr_misses::.cpu.data        322112                       # number of demand (read+write) MSHR misses
system.l2.demand_mshr_misses::total            329633                       # number of demand (read+write) MSHR misses
system.l2.overall_mshr_misses::.cpu.inst         7521                       # number of overall MSHR misses
system.l2.overall_mshr_misses::.cpu.data       322112                       # number of overall MSHR misses
system.l2.overall_mshr_misses::total           329633                       # number of overall MSHR misses
system.l2.ReadExReq_mshr_miss_latency::.cpu.data    746800000                       # number of ReadExReq MSHR miss cycles
system.l2.ReadExReq_mshr_miss_latency::total    746800000                       # number of ReadExReq MSHR miss cycles
system.l2.ReadCleanReq_mshr_miss_latency::.cpu.inst    549884000                       # number of ReadCleanReq MSHR miss cycles
system.l2.ReadCleanReq_mshr_miss_latency::total    549884000                       # number of ReadCleanReq MSHR miss cycles
system.l2.ReadSharedReq_mshr_miss_latency::.cpu.data  23853423500                       # number of ReadSharedReq MSHR miss cycles
system.l2.ReadSharedReq_mshr_miss_latency::total  23853423500                       # number of ReadSharedReq MSHR miss cycles
system.l2.demand_mshr_miss_latency::.cpu.inst    549884000                       # number of demand (read+write) MSHR miss cycles
system.l2.demand_mshr_miss_latency::.cpu.data  24600223500                       # number of demand (read+write) MSHR miss cycles
system.l2.demand_mshr_miss_latency::total  25150107500                       # number of demand (read+write) MSHR miss cycles
system.l2.overall_mshr_miss_latency::.cpu.inst    549884000                       # number of overall MSHR miss cycles
system.l2.overall_mshr_miss_latency::.cpu.data  24600223500                       # number of overall MSHR miss cycles
system.l2.overall_mshr_miss_latency::total  25150107500                       # number of overall MSHR miss cycles
system.l2.CleanEvict_mshr_miss_rate::.writebacks          inf                       # mshr miss rate for CleanEvict accesses
system.l2.CleanEvict_mshr_miss_rate::total          inf                       # mshr miss rate for CleanEvict accesses
system.l2.ReadExReq_mshr_miss_rate::.cpu.data     0.129689                       # mshr miss rate for ReadExReq accesses
system.l2.ReadExReq_mshr_miss_rate::total     0.129689                       # mshr miss rate for ReadExReq accesses
system.l2.ReadCleanReq_mshr_miss_rate::.cpu.inst     0.003802                       # mshr miss rate for ReadCleanReq accesses
system.l2.ReadCleanReq_mshr_miss_rate::total     0.003802                       # mshr miss rate for ReadCleanReq accesses
system.l2.ReadSharedReq_mshr_miss_rate::.cpu.data     0.249297                       # mshr miss rate for ReadSharedReq accesses
system.l2.ReadSharedReq_mshr_miss_rate::total     0.249297                       # mshr miss rate for ReadSharedReq accesses
system.l2.demand_mshr_miss_rate::.cpu.inst     0.003802                       # mshr miss rate for demand accesses
system.l2.demand_mshr_miss_rate::.cpu.data     0.245112                       # mshr miss rate for demand accesses
system.l2.demand_mshr_miss_rate::total       0.100119                       # mshr miss rate for demand accesses
system.l2.overall_mshr_miss_rate::.cpu.inst     0.003802                       # mshr miss rate for overall accesses
system.l2.overall_mshr_miss_rate::.cpu.data     0.245112                       # mshr miss rate for overall accesses
system.l2.overall_mshr_miss_rate::total      0.100119                       # mshr miss rate for overall accesses
system.l2.ReadExReq_avg_mshr_miss_latency::.cpu.data 125217.974514                       # average ReadExReq mshr miss latency
system.l2.ReadExReq_avg_mshr_miss_latency::total 125217.974514                       # average ReadExReq mshr miss latency
system.l2.ReadCleanReq_avg_mshr_miss_latency::.cpu.inst 73113.149847                       # average ReadCleanReq mshr miss latency
system.l2.ReadCleanReq_avg_mshr_miss_latency::total 73113.149847                       # average ReadCleanReq mshr miss latency
system.l2.ReadSharedReq_avg_mshr_miss_latency::.cpu.data 75450.179979                       # average ReadSharedReq mshr miss latency
system.l2.ReadSharedReq_avg_mshr_miss_latency::total 75450.179979                       # average ReadSharedReq mshr miss latency
system.l2.demand_avg_mshr_miss_latency::.cpu.inst 73113.149847                       # average overall mshr miss latency
system.l2.demand_avg_mshr_miss_latency::.cpu.data 76371.645577                       # average overall mshr miss latency
system.l2.demand_avg_mshr_miss_latency::total 76297.298814                       # average overall mshr miss latency
system.l2.overall_avg_mshr_miss_latency::.cpu.inst 73113.149847                       # average overall mshr miss latency
system.l2.overall_avg_mshr_miss_latency::.cpu.data 76371.645577                       # average overall mshr miss latency
system.l2.overall_avg_mshr_miss_latency::total 76297.298814                       # average overall mshr miss latency
system.l2.replacements                         337849                       # number of replacements
system.membus.snoop_filter.tot_requests        658155                       # Total number of requests made to the snoop filter.
system.membus.snoop_filter.hit_single_requests       328522                       # Number of requests hitting in the snoop filter with a single holder of the requested data.
system.membus.snoop_filter.hit_multi_requests            0                       # Number of requests hitting in the snoop filter with multiple (>1) holders of the requested data.
system.membus.snoop_filter.tot_snoops               0                       # Total number of snoops made to the snoop filter.
system.membus.snoop_filter.hit_single_snoops            0                       # Number of snoops hitting in the snoop filter with a single holder of the requested data.
system.membus.snoop_filter.hit_multi_snoops            0                       # Number of snoops hitting in the snoop filter with multiple (>1) holders of the requested data.
system.membus.pwrStateResidencyTicks::UNDEFINED 122419422500                       # Cumulative time (in ticks) in various power states
system.membus.trans_dist::ReadResp             323669                       # Transaction distribution
system.membus.trans_dist::WritebackDirty        21712                       # Transaction distribution
system.membus.trans_dist::CleanEvict           306810                       # Transaction distribution
system.membus.trans_dist::ReadExReq              5964                       # Transaction distribution
system.membus.trans_dist::ReadExResp             5964                       # Transaction distribution
system.membus.trans_dist::ReadSharedReq        323669                       # Transaction distribution
system.membus.pkt_count_system.l2.mem_side::system.mem_ctrls.port       987788                       # Packet count per connected master and slave (bytes)
system.membus.pkt_count::total                 987788                       # Packet count per connected master and slave (bytes)
system.membus.pkt_size_system.l2.mem_side::system.mem_ctrls.port      5621520                       # Cumulative packet size per connected master and slave (bytes)
system.membus.pkt_size::total                 5621520                       # Cumulative packet size per connected master and slave (bytes)
system.membus.snoops                                0                       # Total snoops (count)
system.membus.snoopTraffic                          0                       # Total snoop traffic (bytes)
system.membus.snoop_fanout::samples            329633                       # Request fanout histogram
system.membus.snoop_fanout::mean                    0                       # Request fanout histogram
system.membus.snoop_fanout::stdev                   0                       # Request fanout histogram
system.membus.snoop_fanout::underflows              0      0.00%      0.00% # Request fanout histogram
system.membus.snoop_fanout::0                  329633    100.00%    100.00% # Request fanout histogram
system.membus.snoop_fanout::1                       0      0.00%    100.00% # Request fanout histogram
system.membus.snoop_fanout::overflows               0      0.00%    100.00% # Request fanout histogram
system.membus.snoop_fanout::min_value               0                       # Request fanout histogram
system.membus.snoop_fanout::max_value               0                       # Request fanout histogram
system.membus.snoop_fanout::total              329633                       # Request fanout histogram
system.membus.reqLayer0.occupancy           680944000                       # Layer occupancy (ticks)
system.membus.reqLayer0.utilization               0.6                       # Layer utilization (%)
system.membus.respLayer1.occupancy          750142500                       # Layer occupancy (ticks)
system.membus.respLayer1.utilization              0.6                       # Layer utilization (%)
system.tol2bus.snoop_filter.tot_requests      6584436                       # Total number of requests made to the snoop filter.
system.tol2bus.snoop_filter.hit_single_requests      3292027                       # Number of requests hitting in the snoop filter with a single holder of the requested data.
system.tol2bus.snoop_filter.hit_multi_requests        10444                       # Number of requests hitting in the snoop filter with multiple (>1) holders of the requested data.
system.tol2bus.snoop_filter.tot_snoops          10630                       # Total number of snoops made to the snoop filter.
system.tol2bus.snoop_filter.hit_single_snoops        10630                       # Number of snoops hitting in the snoop filter with a single holder of the requested data.
system.tol2bus.snoop_filter.hit_multi_snoops            0                       # Number of snoops hitting in the snoop filter with multiple (>1) holders of the requested data.
system.tol2bus.pwrStateResidencyTicks::UNDEFINED 122419422500                       # Cumulative time (in ticks) in various power states
system.tol2bus.trans_dist::ReadResp           3246423                       # Transaction distribution
system.tol2bus.trans_dist::WritebackDirty       794955                       # Transaction distribution
system.tol2bus.trans_dist::WritebackClean      1978139                       # Transaction distribution
system.tol2bus.trans_dist::CleanEvict          856781                       # Transaction distribution
system.tol2bus.trans_dist::ReadExReq            45987                       # Transaction distribution
system.tol2bus.trans_dist::ReadExResp           45987                       # Transaction distribution
system.tol2bus.trans_dist::ReadCleanReq       1978267                       # Transaction distribution
system.tol2bus.trans_dist::ReadSharedReq      1268156                       # Transaction distribution
system.tol2bus.pkt_count_system.cpu.icache.mem_side::system.l2.cpu_side      5934673                       # Packet count per connected master and slave (bytes)
system.tol2bus.pkt_count_system.cpu.dcache.mem_side::system.l2.cpu_side      3942173                       # Packet count per connected master and slave (bytes)
system.tol2bus.pkt_count::total               9876846                       # Packet count per connected master and slave (bytes)
system.tol2bus.pkt_size_system.cpu.icache.mem_side::system.l2.cpu_side     63302496                       # Cumulative packet size per connected master and slave (bytes)
system.tol2bus.pkt_size_system.cpu.dcache.mem_side::system.l2.cpu_side     33398176                       # Cumulative packet size per connected master and slave (bytes)
system.tol2bus.pkt_size::total               96700672                       # Cumulative packet size per connected master and slave (bytes)
system.tol2bus.snoops                          337849                       # Total snoops (count)
system.tol2bus.snoopTraffic                    347392                       # Total snoop traffic (bytes)
system.tol2bus.snoop_fanout::samples          3630259                       # Request fanout histogram
system.tol2bus.snoop_fanout::mean            0.005805                       # Request fanout histogram
system.tol2bus.snoop_fanout::stdev           0.075972                       # Request fanout histogram
system.tol2bus.snoop_fanout::underflows             0      0.00%      0.00% # Request fanout histogram
system.tol2bus.snoop_fanout::0                3609184     99.42%     99.42% # Request fanout histogram
system.tol2bus.snoop_fanout::1                  21075      0.58%    100.00% # Request fanout histogram
system.tol2bus.snoop_fanout::2                      0      0.00%    100.00% # Request fanout histogram
system.tol2bus.snoop_fanout::overflows              0      0.00%    100.00% # Request fanout histogram
system.tol2bus.snoop_fanout::min_value              0                       # Request fanout histogram
system.tol2bus.snoop_fanout::max_value              1                       # Request fanout histogram
system.tol2bus.snoop_fanout::total            3630259                       # Request fanout histogram
system.tol2bus.reqLayer0.occupancy         4667909000                       # Layer occupancy (ticks)
system.tol2bus.reqLayer0.utilization              3.8                       # Layer utilization (%)
system.tol2bus.respLayer0.occupancy        1978267000                       # Layer occupancy (ticks)
system.tol2bus.respLayer0.utilization             1.6                       # Layer utilization (%)
system.tol2bus.respLayer1.occupancy        1314143000                       # Layer occupancy (ticks)
system.tol2bus.respLayer1.utilization             1.1                       # Layer utilization (%)

---------- End Simulation Statistics   ----------
