
---------- Begin Simulation Statistics ----------
sim_seconds                                  0.111708                       # Number of seconds simulated
sim_ticks                                111707602500                       # Number of ticks simulated
final_tick                               111707602500                       # Number of ticks from beginning of simulation (restored from checkpoints and never reset)
sim_freq                                 1000000000000                       # Frequency of simulated ticks
host_inst_rate                                1163384                       # Simulator instruction rate (inst/s)
host_op_rate                                  1236800                       # Simulator op (including micro ops) rate (op/s)
host_tick_rate                             2975129959                       # Simulator tick rate (ticks/s)
host_mem_usage                                 669856                       # Number of bytes of host memory used
host_seconds                                    37.55                       # Real time elapsed on the host
sim_insts                                    43681711                       # Number of instructions simulated
sim_ops                                      46438296                       # Number of ops (including micro ops) simulated
system.voltage_domain.voltage                       1                       # Voltage in Volts
system.clk_domain.clock                          1000                       # Clock period in ticks
system.mem_ctrls.pwrStateResidencyTicks::UNDEFINED 111707602500                       # Cumulative time (in ticks) in various power states
system.mem_ctrls.bytes_read::.cpu.inst         122848                       # Number of bytes read from this memory
system.mem_ctrls.bytes_read::.cpu.data        4983808                       # Number of bytes read from this memory
system.mem_ctrls.bytes_read::total            5106656                       # Number of bytes read from this memory
system.mem_ctrls.bytes_inst_read::.cpu.inst       122848                       # Number of instructions bytes read from this memory
system.mem_ctrls.bytes_inst_read::total        122848                       # Number of instructions bytes read from this memory
system.mem_ctrls.bytes_written::.writebacks       330224                       # Number of bytes written to this memory
system.mem_ctrls.bytes_written::total          330224                       # Number of bytes written to this memory
system.mem_ctrls.num_reads::.cpu.inst            7678                       # Number of read requests responded to by this memory
system.mem_ctrls.num_reads::.cpu.data          311488                       # Number of read requests responded to by this memory
system.mem_ctrls.num_reads::total              319166                       # Number of read requests responded to by this memory
system.mem_ctrls.num_writes::.writebacks        20639                       # Number of write requests responded to by this memory
system.mem_ctrls.num_writes::total              20639                       # Number of write requests responded to by this memory
system.mem_ctrls.bw_read::.cpu.inst           1099728                       # Total read bandwidth from this memory (bytes/s)
system.mem_ctrls.bw_read::.cpu.data          44614761                       # Total read bandwidth from this memory (bytes/s)
system.mem_ctrls.bw_read::total              45714489                       # Total read bandwidth from this memory (bytes/s)
system.mem_ctrls.bw_inst_read::.cpu.inst      1099728                       # Instruction read bandwidth from this memory (bytes/s)
system.mem_ctrls.bw_inst_read::total          1099728                       # Instruction read bandwidth from this memory (bytes/s)
system.mem_ctrls.bw_write::.writebacks        2956146                       # Write bandwidth from this memory (bytes/s)
system.mem_ctrls.bw_write::total              2956146                       # Write bandwidth from this memory (bytes/s)
system.mem_ctrls.bw_total::.writebacks        2956146                       # Total bandwidth to/from this memory (bytes/s)
system.mem_ctrls.bw_total::.cpu.inst          1099728                       # Total bandwidth to/from this memory (bytes/s)
system.mem_ctrls.bw_total::.cpu.data         44614761                       # Total bandwidth to/from this memory (bytes/s)
system.mem_ctrls.bw_total::total             48670635                       # Total bandwidth to/from this memory (bytes/s)
system.mem_ctrls.avgPriority_.writebacks::samples     14230.00                       # Average QoS priority value for accepted requests
system.mem_ctrls.avgPriority_.cpu.inst::samples      7678.00                       # Average QoS priority value for accepted requests
system.mem_ctrls.avgPriority_.cpu.data::samples    308906.00                       # Average QoS priority value for accepted requests
system.mem_ctrls.priorityMinLatency      0.000000018750                       # per QoS priority minimum request to response latency (s)
system.mem_ctrls.priorityMaxLatency      0.008576836750                       # per QoS priority maximum request to response latency (s)
system.mem_ctrls.numReadWriteTurnArounds          801                       # Number of turnarounds from READ to WRITE
system.mem_ctrls.numWriteReadTurnArounds          801                       # Number of turnarounds from WRITE to READ
system.mem_ctrls.numStayReadState              677085                       # Number of times bus staying in READ state
system.mem_ctrls.numStayWriteState              13538                       # Number of times bus staying in WRITE state
system.mem_ctrls.readReqs                      319166                       # Number of read requests accepted
system.mem_ctrls.writeReqs                      20639                       # Number of write requests accepted
system.mem_ctrls.readBursts                    319166                       # Number of DRAM read bursts, including those serviced by the write queue
system.mem_ctrls.writeBursts                    20639                       # Number of DRAM write bursts, including those merged in the write queue
system.mem_ctrls.bytesReadDRAM               20261376                       # Total number of bytes read from DRAM
system.mem_ctrls.bytesReadWrQ                  165248                       # Total number of bytes read from write queue
system.mem_ctrls.bytesWritten                  909568                       # Total number of bytes written to DRAM
system.mem_ctrls.bytesReadSys                 5106656                       # Total read bytes from the system interface side
system.mem_ctrls.bytesWrittenSys               330224                       # Total written bytes from the system interface side
system.mem_ctrls.servicedByWrQ                   2582                       # Number of DRAM read bursts serviced by the write queue
system.mem_ctrls.mergedWrBursts                  6409                       # Number of DRAM write bursts merged with an existing one
system.mem_ctrls.neitherReadNorWriteReqs            0                       # Number of requests that are neither read nor write
system.mem_ctrls.perBankRdBursts::0             58496                       # Per bank write bursts
system.mem_ctrls.perBankRdBursts::1             59819                       # Per bank write bursts
system.mem_ctrls.perBankRdBursts::2             21221                       # Per bank write bursts
system.mem_ctrls.perBankRdBursts::3               626                       # Per bank write bursts
system.mem_ctrls.perBankRdBursts::4               936                       # Per bank write bursts
system.mem_ctrls.perBankRdBursts::5              3843                       # Per bank write bursts
system.mem_ctrls.perBankRdBursts::6              7075                       # Per bank write bursts
system.mem_ctrls.perBankRdBursts::7             18534                       # Per bank write bursts
system.mem_ctrls.perBankRdBursts::8               866                       # Per bank write bursts
system.mem_ctrls.perBankRdBursts::9              1196                       # Per bank write bursts
system.mem_ctrls.perBankRdBursts::10               42                       # Per bank write bursts
system.mem_ctrls.perBankRdBursts::11              703                       # Per bank write bursts
system.mem_ctrls.perBankRdBursts::12              829                       # Per bank write bursts
system.mem_ctrls.perBankRdBursts::13            28287                       # Per bank write bursts
system.mem_ctrls.perBankRdBursts::14            56230                       # Per bank write bursts
system.mem_ctrls.perBankRdBursts::15            57881                       # Per bank write bursts
system.mem_ctrls.perBankWrBursts::0               271                       # Per bank write bursts
system.mem_ctrls.perBankWrBursts::1               257                       # Per bank write bursts
system.mem_ctrls.perBankWrBursts::2               437                       # Per bank write bursts
system.mem_ctrls.perBankWrBursts::3                12                       # Per bank write bursts
system.mem_ctrls.perBankWrBursts::4                23                       # Per bank write bursts
system.mem_ctrls.perBankWrBursts::5               234                       # Per bank write bursts
system.mem_ctrls.perBankWrBursts::6              3007                       # Per bank write bursts
system.mem_ctrls.perBankWrBursts::7              9160                       # Per bank write bursts
system.mem_ctrls.perBankWrBursts::8                 0                       # Per bank write bursts
system.mem_ctrls.perBankWrBursts::9                 0                       # Per bank write bursts
system.mem_ctrls.perBankWrBursts::10                0                       # Per bank write bursts
system.mem_ctrls.perBankWrBursts::11                0                       # Per bank write bursts
system.mem_ctrls.perBankWrBursts::12              122                       # Per bank write bursts
system.mem_ctrls.perBankWrBursts::13              215                       # Per bank write bursts
system.mem_ctrls.perBankWrBursts::14              240                       # Per bank write bursts
system.mem_ctrls.perBankWrBursts::15              234                       # Per bank write bursts
system.mem_ctrls.numRdRetry                         0                       # Number of times read queue was full causing retry
system.mem_ctrls.numWrRetry                         0                       # Number of times write queue was full causing retry
system.mem_ctrls.totGap                  111707524500                       # Total gap between requests
system.mem_ctrls.readPktSize::0                     0                       # Read request sizes (log2)
system.mem_ctrls.readPktSize::1                     0                       # Read request sizes (log2)
system.mem_ctrls.readPktSize::2                     0                       # Read request sizes (log2)
system.mem_ctrls.readPktSize::3                     0                       # Read request sizes (log2)
system.mem_ctrls.readPktSize::4                319166                       # Read request sizes (log2)
system.mem_ctrls.readPktSize::5                     0                       # Read request sizes (log2)
system.mem_ctrls.readPktSize::6                     0                       # Read request sizes (log2)
system.mem_ctrls.writePktSize::0                    0                       # Write request sizes (log2)
system.mem_ctrls.writePktSize::1                    0                       # Write request sizes (log2)
system.mem_ctrls.writePktSize::2                    0                       # Write request sizes (log2)
system.mem_ctrls.writePktSize::3                    0                       # Write request sizes (log2)
system.mem_ctrls.writePktSize::4                20639                       # Write request sizes (log2)
system.mem_ctrls.writePktSize::5                    0                       # Write request sizes (log2)
system.mem_ctrls.writePktSize::6                    0                       # Write request sizes (log2)
system.mem_ctrls.rdQLenPdf::0                  316509                       # What read queue length does an incoming req see
system.mem_ctrls.rdQLenPdf::1                      75                       # What read queue length does an incoming req see
system.mem_ctrls.rdQLenPdf::2                       0                       # What read queue length does an incoming req see
system.mem_ctrls.rdQLenPdf::3                       0                       # What read queue length does an incoming req see
system.mem_ctrls.rdQLenPdf::4                       0                       # What read queue length does an incoming req see
system.mem_ctrls.rdQLenPdf::5                       0                       # What read queue length does an incoming req see
system.mem_ctrls.rdQLenPdf::6                       0                       # What read queue length does an incoming req see
system.mem_ctrls.rdQLenPdf::7                       0                       # What read queue length does an incoming req see
system.mem_ctrls.rdQLenPdf::8                       0                       # What read queue length does an incoming req see
system.mem_ctrls.rdQLenPdf::9                       0                       # What read queue length does an incoming req see
system.mem_ctrls.rdQLenPdf::10                      0                       # What read queue length does an incoming req see
system.mem_ctrls.rdQLenPdf::11                      0                       # What read queue length does an incoming req see
system.mem_ctrls.rdQLenPdf::12                      0                       # What read queue length does an incoming req see
system.mem_ctrls.rdQLenPdf::13                      0                       # What read queue length does an incoming req see
system.mem_ctrls.rdQLenPdf::14                      0                       # What read queue length does an incoming req see
system.mem_ctrls.rdQLenPdf::15                      0                       # What read queue length does an incoming req see
system.mem_ctrls.rdQLenPdf::16                      0                       # What read queue length does an incoming req see
system.mem_ctrls.rdQLenPdf::17                      0                       # What read queue length does an incoming req see
system.mem_ctrls.rdQLenPdf::18                      0                       # What read queue length does an incoming req see
system.mem_ctrls.rdQLenPdf::19                      0                       # What read queue length does an incoming req see
system.mem_ctrls.rdQLenPdf::20                      0                       # What read queue length does an incoming req see
system.mem_ctrls.rdQLenPdf::21                      0                       # What read queue length does an incoming req see
system.mem_ctrls.rdQLenPdf::22                      0                       # What read queue length does an incoming req see
system.mem_ctrls.rdQLenPdf::23                      0                       # What read queue length does an incoming req see
system.mem_ctrls.rdQLenPdf::24                      0                       # What read queue length does an incoming req see
system.mem_ctrls.rdQLenPdf::25                      0                       # What read queue length does an incoming req see
system.mem_ctrls.rdQLenPdf::26                      0                       # What read queue length does an incoming req see
system.mem_ctrls.rdQLenPdf::27                      0                       # What read queue length does an incoming req see
system.mem_ctrls.rdQLenPdf::28                      0                       # What read queue length does an incoming req see
system.mem_ctrls.rdQLenPdf::29                      0                       # What read queue length does an incoming req see
system.mem_ctrls.rdQLenPdf::30                      0                       # What read queue length does an incoming req see
system.mem_ctrls.rdQLenPdf::31                      0                       # What read queue length does an incoming req see
system.mem_ctrls.wrQLenPdf::0                       1                       # What write queue length does an incoming req see
system.mem_ctrls.wrQLenPdf::1                       1                       # What write queue length does an incoming req see
system.mem_ctrls.wrQLenPdf::2                       1                       # What write queue length does an incoming req see
system.mem_ctrls.wrQLenPdf::3                       1                       # What write queue length does an incoming req see
system.mem_ctrls.wrQLenPdf::4                       1                       # What write queue length does an incoming req see
system.mem_ctrls.wrQLenPdf::5                       1                       # What write queue length does an incoming req see
system.mem_ctrls.wrQLenPdf::6                       1                       # What write queue length does an incoming req see
system.mem_ctrls.wrQLenPdf::7                       1                       # What write queue length does an incoming req see
system.mem_ctrls.wrQLenPdf::8                       1                       # What write queue length does an incoming req see
system.mem_ctrls.wrQLenPdf::9                       1                       # What write queue length does an incoming req see
system.mem_ctrls.wrQLenPdf::10                      1                       # What write queue length does an incoming req see
system.mem_ctrls.wrQLenPdf::11                      1                       # What write queue length does an incoming req see
system.mem_ctrls.wrQLenPdf::12                      1                       # What write queue length does an incoming req see
system.mem_ctrls.wrQLenPdf::13                      1                       # What write queue length does an incoming req see
system.mem_ctrls.wrQLenPdf::14                      1                       # What write queue length does an incoming req see
system.mem_ctrls.wrQLenPdf::15                    697                       # What write queue length does an incoming req see
system.mem_ctrls.wrQLenPdf::16                    700                       # What write queue length does an incoming req see
system.mem_ctrls.wrQLenPdf::17                    801                       # What write queue length does an incoming req see
system.mem_ctrls.wrQLenPdf::18                    801                       # What write queue length does an incoming req see
system.mem_ctrls.wrQLenPdf::19                    801                       # What write queue length does an incoming req see
system.mem_ctrls.wrQLenPdf::20                    801                       # What write queue length does an incoming req see
system.mem_ctrls.wrQLenPdf::21                    801                       # What write queue length does an incoming req see
system.mem_ctrls.wrQLenPdf::22                    801                       # What write queue length does an incoming req see
system.mem_ctrls.wrQLenPdf::23                    801                       # What write queue length does an incoming req see
system.mem_ctrls.wrQLenPdf::24                    801                       # What write queue length does an incoming req see
system.mem_ctrls.wrQLenPdf::25                    802                       # What write queue length does an incoming req see
system.mem_ctrls.wrQLenPdf::26                    801                       # What write queue length does an incoming req see
system.mem_ctrls.wrQLenPdf::27                    801                       # What write queue length does an incoming req see
system.mem_ctrls.wrQLenPdf::28                    801                       # What write queue length does an incoming req see
system.mem_ctrls.wrQLenPdf::29                    802                       # What write queue length does an incoming req see
system.mem_ctrls.wrQLenPdf::30                    801                       # What write queue length does an incoming req see
system.mem_ctrls.wrQLenPdf::31                    801                       # What write queue length does an incoming req see
system.mem_ctrls.wrQLenPdf::32                    801                       # What write queue length does an incoming req see
system.mem_ctrls.wrQLenPdf::33                      0                       # What write queue length does an incoming req see
system.mem_ctrls.wrQLenPdf::34                      0                       # What write queue length does an incoming req see
system.mem_ctrls.wrQLenPdf::35                      0                       # What write queue length does an incoming req see
system.mem_ctrls.wrQLenPdf::36                      0                       # What write queue length does an incoming req see
system.mem_ctrls.wrQLenPdf::37                      0                       # What write queue length does an incoming req see
system.mem_ctrls.wrQLenPdf::38                      0                       # What write queue length does an incoming req see
system.mem_ctrls.wrQLenPdf::39                      0                       # What write queue length does an incoming req see
system.mem_ctrls.wrQLenPdf::40                      0                       # What write queue length does an incoming req see
system.mem_ctrls.wrQLenPdf::41                      0                       # What write queue length does an incoming req see
system.mem_ctrls.wrQLenPdf::42                      0                       # What write queue length does an incoming req see
system.mem_ctrls.wrQLenPdf::43                      0                       # What write queue length does an incoming req see
system.mem_ctrls.wrQLenPdf::44                      0                       # What write queue length does an incoming req see
system.mem_ctrls.wrQLenPdf::45                      0                       # What write queue length does an incoming req see
system.mem_ctrls.wrQLenPdf::46                      0                       # What write queue length does an incoming req see
system.mem_ctrls.wrQLenPdf::47                      0                       # What write queue length does an incoming req see
system.mem_ctrls.wrQLenPdf::48                      0                       # What write queue length does an incoming req see
system.mem_ctrls.wrQLenPdf::49                      0                       # What write queue length does an incoming req see
system.mem_ctrls.wrQLenPdf::50                      0                       # What write queue length does an incoming req see
system.mem_ctrls.wrQLenPdf::51                      0                       # What write queue length does an incoming req see
system.mem_ctrls.wrQLenPdf::52                      0                       # What write queue length does an incoming req see
system.mem_ctrls.wrQLenPdf::53                      0                       # What write queue length does an incoming req see
system.mem_ctrls.wrQLenPdf::54                      0                       # What write queue length does an incoming req see
system.mem_ctrls.wrQLenPdf::55                      0                       # What write queue length does an incoming req see
system.mem_ctrls.wrQLenPdf::56                      0                       # What write queue length does an incoming req see
system.mem_ctrls.wrQLenPdf::57                      0                       # What write queue length does an incoming req see
system.mem_ctrls.wrQLenPdf::58                      0                       # What write queue length does an incoming req see
system.mem_ctrls.wrQLenPdf::59                      0                       # What write queue length does an incoming req see
system.mem_ctrls.wrQLenPdf::60                      0                       # What write queue length does an incoming req see
system.mem_ctrls.wrQLenPdf::61                      0                       # What write queue length does an incoming req see
system.mem_ctrls.wrQLenPdf::62                      0                       # What write queue length does an incoming req see
system.mem_ctrls.wrQLenPdf::63                      0                       # What write queue length does an incoming req see
system.mem_ctrls.bytesPerActivate::samples        43290                       # Bytes accessed per row activation
system.mem_ctrls.bytesPerActivate::mean    489.012335                       # Bytes accessed per row activation
system.mem_ctrls.bytesPerActivate::gmean   297.677253                       # Bytes accessed per row activation
system.mem_ctrls.bytesPerActivate::stdev   392.298010                       # Bytes accessed per row activation
system.mem_ctrls.bytesPerActivate::0-127        11161     25.78%     25.78% # Bytes accessed per row activation
system.mem_ctrls.bytesPerActivate::128-255         6547     15.12%     40.91% # Bytes accessed per row activation
system.mem_ctrls.bytesPerActivate::256-383         3168      7.32%     48.22% # Bytes accessed per row activation
system.mem_ctrls.bytesPerActivate::384-511         2379      5.50%     53.72% # Bytes accessed per row activation
system.mem_ctrls.bytesPerActivate::512-639         3022      6.98%     60.70% # Bytes accessed per row activation
system.mem_ctrls.bytesPerActivate::640-767         2727      6.30%     67.00% # Bytes accessed per row activation
system.mem_ctrls.bytesPerActivate::768-895         1823      4.21%     71.21% # Bytes accessed per row activation
system.mem_ctrls.bytesPerActivate::896-1023         1124      2.60%     73.81% # Bytes accessed per row activation
system.mem_ctrls.bytesPerActivate::1024-1151        11339     26.19%    100.00% # Bytes accessed per row activation
system.mem_ctrls.bytesPerActivate::total        43290                       # Bytes accessed per row activation
system.mem_ctrls.rdPerTurnAround::samples          801                       # Reads before turning the bus around for writes
system.mem_ctrls.rdPerTurnAround::mean     395.169788                       # Reads before turning the bus around for writes
system.mem_ctrls.rdPerTurnAround::gmean    240.939953                       # Reads before turning the bus around for writes
system.mem_ctrls.rdPerTurnAround::stdev    413.774324                       # Reads before turning the bus around for writes
system.mem_ctrls.rdPerTurnAround::0-127           267     33.33%     33.33% # Reads before turning the bus around for writes
system.mem_ctrls.rdPerTurnAround::128-255           82     10.24%     43.57% # Reads before turning the bus around for writes
system.mem_ctrls.rdPerTurnAround::256-383          102     12.73%     56.30% # Reads before turning the bus around for writes
system.mem_ctrls.rdPerTurnAround::384-511          126     15.73%     72.03% # Reads before turning the bus around for writes
system.mem_ctrls.rdPerTurnAround::512-639           96     11.99%     84.02% # Reads before turning the bus around for writes
system.mem_ctrls.rdPerTurnAround::640-767           46      5.74%     89.76% # Reads before turning the bus around for writes
system.mem_ctrls.rdPerTurnAround::768-895           25      3.12%     92.88% # Reads before turning the bus around for writes
system.mem_ctrls.rdPerTurnAround::896-1023           15      1.87%     94.76% # Reads before turning the bus around for writes
system.mem_ctrls.rdPerTurnAround::1024-1151            7      0.87%     95.63% # Reads before turning the bus around for writes
system.mem_ctrls.rdPerTurnAround::1152-1279            3      0.37%     96.00% # Reads before turning the bus around for writes
system.mem_ctrls.rdPerTurnAround::1280-1407            4      0.50%     96.50% # Reads before turning the bus around for writes
system.mem_ctrls.rdPerTurnAround::1408-1535            3      0.37%     96.88% # Reads before turning the bus around for writes
system.mem_ctrls.rdPerTurnAround::1536-1663            6      0.75%     97.63% # Reads before turning the bus around for writes
system.mem_ctrls.rdPerTurnAround::1664-1791            8      1.00%     98.63% # Reads before turning the bus around for writes
system.mem_ctrls.rdPerTurnAround::1792-1919            2      0.25%     98.88% # Reads before turning the bus around for writes
system.mem_ctrls.rdPerTurnAround::1920-2047            1      0.12%     99.00% # Reads before turning the bus around for writes
system.mem_ctrls.rdPerTurnAround::2048-2175            2      0.25%     99.25% # Reads before turning the bus around for writes
system.mem_ctrls.rdPerTurnAround::2176-2303            1      0.12%     99.38% # Reads before turning the bus around for writes
system.mem_ctrls.rdPerTurnAround::2560-2687            2      0.25%     99.63% # Reads before turning the bus around for writes
system.mem_ctrls.rdPerTurnAround::2816-2943            1      0.12%     99.75% # Reads before turning the bus around for writes
system.mem_ctrls.rdPerTurnAround::2944-3071            1      0.12%     99.88% # Reads before turning the bus around for writes
system.mem_ctrls.rdPerTurnAround::3840-3967            1      0.12%    100.00% # Reads before turning the bus around for writes
system.mem_ctrls.rdPerTurnAround::total           801                       # Reads before turning the bus around for writes
system.mem_ctrls.wrPerTurnAround::samples          801                       # Writes before turning the bus around for reads
system.mem_ctrls.wrPerTurnAround::mean      17.742821                       # Writes before turning the bus around for reads
system.mem_ctrls.wrPerTurnAround::gmean     17.729441                       # Writes before turning the bus around for reads
system.mem_ctrls.wrPerTurnAround::stdev      0.669908                       # Writes before turning the bus around for reads
system.mem_ctrls.wrPerTurnAround::16              102     12.73%     12.73% # Writes before turning the bus around for reads
system.mem_ctrls.wrPerTurnAround::17                3      0.37%     13.11% # Writes before turning the bus around for reads
system.mem_ctrls.wrPerTurnAround::18              695     86.77%     99.88% # Writes before turning the bus around for reads
system.mem_ctrls.wrPerTurnAround::19                1      0.12%    100.00% # Writes before turning the bus around for reads
system.mem_ctrls.wrPerTurnAround::total           801                       # Writes before turning the bus around for reads
system.mem_ctrls.masterReadBytes::.cpu.inst       122848                       # Per-master bytes read from memory
system.mem_ctrls.masterReadBytes::.cpu.data      4942496                       # Per-master bytes read from memory
system.mem_ctrls.masterWriteBytes::.writebacks       227392                       # Per-master bytes write to memory
system.mem_ctrls.masterReadRate::.cpu.inst 1099728.194417206338                       # Per-master bytes read from memory rate (Bytes/sec)
system.mem_ctrls.masterReadRate::.cpu.data 44244938.476770192385                       # Per-master bytes read from memory rate (Bytes/sec)
system.mem_ctrls.masterWriteRate::.writebacks 2035600.038949900540                       # Per-master bytes write to memory rate (Bytes/sec)
system.mem_ctrls.masterReadAccesses::.cpu.inst         7678                       # Per-master read serviced memory accesses
system.mem_ctrls.masterReadAccesses::.cpu.data       311488                       # Per-master read serviced memory accesses
system.mem_ctrls.masterWriteAccesses::.writebacks        20639                       # Per-master write serviced memory accesses
system.mem_ctrls.masterReadTotalLat::.cpu.inst    244158000                       # Per-master read total memory access latency
system.mem_ctrls.masterReadTotalLat::.cpu.data  11059755250                       # Per-master read total memory access latency
system.mem_ctrls.masterWriteTotalLat::.writebacks 2605212002500                       # Per-master write total memory access latency
system.mem_ctrls.masterReadAvgLat::.cpu.inst     31799.69                       # Per-master read average memory access latency
system.mem_ctrls.masterReadAvgLat::.cpu.data     35506.20                       # Per-master read average memory access latency
system.mem_ctrls.masterWriteAvgLat::.writebacks 126227627.43                       # Per-master write average memory access latency
system.mem_ctrls.totQLat                   5367963250                       # Total ticks spent queuing
system.mem_ctrls.totMemAccLat             11303913250                       # Total ticks spent from burst creation until serviced by the DRAM
system.mem_ctrls.totBusLat                 1582920000                       # Total ticks spent in databus transfers
system.mem_ctrls.avgQLat                     16955.89                       # Average queueing delay per DRAM burst
system.mem_ctrls.avgBusLat                    5000.00                       # Average bus latency per DRAM burst
system.mem_ctrls.avgMemAccLat                35705.89                       # Average memory access latency per DRAM burst
system.mem_ctrls.avgRdBW                       181.38                       # Average DRAM read bandwidth in MiByte/s
system.mem_ctrls.avgWrBW                         8.14                       # Average achieved write bandwidth in MiByte/s
system.mem_ctrls.avgRdBWSys                     45.71                       # Average system read bandwidth in MiByte/s
system.mem_ctrls.avgWrBWSys                      2.96                       # Average system write bandwidth in MiByte/s
system.mem_ctrls.peakBW                      12800.00                       # Theoretical peak bandwidth in MiByte/s
system.mem_ctrls.busUtil                         1.48                       # Data bus utilization in percentage
system.mem_ctrls.busUtilRead                     1.42                       # Data bus utilization in percentage for reads
system.mem_ctrls.busUtilWrite                    0.06                       # Data bus utilization in percentage for writes
system.mem_ctrls.avgRdQLen                       1.00                       # Average read queue length when enqueuing
system.mem_ctrls.avgWrQLen                      24.15                       # Average write queue length when enqueuing
system.mem_ctrls.readRowHits                   274634                       # Number of row buffer hits during reads
system.mem_ctrls.writeRowHits                   12865                       # Number of row buffer hits during writes
system.mem_ctrls.readRowHitRate                 86.75                       # Row buffer hit rate for reads
system.mem_ctrls.writeRowHitRate                90.41                       # Row buffer hit rate for writes
system.mem_ctrls.avgGap                     328740.08                       # Average gap between requests
system.mem_ctrls.pageHitRate                    86.91                       # Row buffer hit rate, read and write combined
system.mem_ctrls_0.actEnergy                196300020                       # Energy for activate commands per rank (pJ)
system.mem_ctrls_0.preEnergy                104320755                       # Energy for precharge commands per rank (pJ)
system.mem_ctrls_0.readEnergy              1217727000                       # Energy for read commands per rank (pJ)
system.mem_ctrls_0.writeEnergy               69953220                       # Energy for write commands per rank (pJ)
system.mem_ctrls_0.refreshEnergy         8330830560.000001                       # Energy for refresh commands per rank (pJ)
system.mem_ctrls_0.actBackEnergy           4354704810                       # Energy for active background per rank (pJ)
system.mem_ctrls_0.preBackEnergy            318658560                       # Energy for precharge background per rank (pJ)
system.mem_ctrls_0.actPowerDownEnergy     30418542480                       # Energy for active power-down per rank (pJ)
system.mem_ctrls_0.prePowerDownEnergy     11064033120                       # Energy for precharge power-down per rank (pJ)
system.mem_ctrls_0.selfRefreshEnergy       2154919920                       # Energy for self refresh per rank (pJ)
system.mem_ctrls_0.totalEnergy            58238190435                       # Total energy per rank (pJ)
system.mem_ctrls_0.averagePower            521.344914                       # Core power per rank (mW)
system.mem_ctrls_0.totalIdleTime         101309073250                       # Total Idle time Per DRAM Rank
system.mem_ctrls_0.memoryStateTime::IDLE    463241500                       # Time in different power states
system.mem_ctrls_0.memoryStateTime::REF    3524040000                       # Time in different power states
system.mem_ctrls_0.memoryStateTime::SREF   5789764250                       # Time in different power states
system.mem_ctrls_0.memoryStateTime::PRE_PDN  28812341250                       # Time in different power states
system.mem_ctrls_0.memoryStateTime::ACT    6411029750                       # Time in different power states
system.mem_ctrls_0.memoryStateTime::ACT_PDN  66707185750                       # Time in different power states
system.mem_ctrls_1.actEnergy                112840560                       # Energy for activate commands per rank (pJ)
system.mem_ctrls_1.preEnergy                 59964795                       # Energy for precharge commands per rank (pJ)
system.mem_ctrls_1.readEnergy              1042682760                       # Energy for read commands per rank (pJ)
system.mem_ctrls_1.writeEnergy                4233420                       # Energy for write commands per rank (pJ)
system.mem_ctrls_1.refreshEnergy         6107677680.000001                       # Energy for refresh commands per rank (pJ)
system.mem_ctrls_1.actBackEnergy           3030523560                       # Energy for active background per rank (pJ)
system.mem_ctrls_1.preBackEnergy            334470240                       # Energy for precharge background per rank (pJ)
system.mem_ctrls_1.actPowerDownEnergy     21538522170                       # Energy for active power-down per rank (pJ)
system.mem_ctrls_1.prePowerDownEnergy      8875772160                       # Energy for precharge power-down per rank (pJ)
system.mem_ctrls_1.selfRefreshEnergy       9126870960                       # Energy for self refresh per rank (pJ)
system.mem_ctrls_1.totalEnergy            50239599765                       # Total energy per rank (pJ)
system.mem_ctrls_1.averagePower            449.741993                       # Core power per rank (mW)
system.mem_ctrls_1.totalIdleTime         104177313500                       # Total Idle time Per DRAM Rank
system.mem_ctrls_1.memoryStateTime::IDLE    575580750                       # Time in different power states
system.mem_ctrls_1.memoryStateTime::REF    2583620000                       # Time in different power states
system.mem_ctrls_1.memoryStateTime::SREF  33829673500                       # Time in different power states
system.mem_ctrls_1.memoryStateTime::PRE_PDN  23113946750                       # Time in different power states
system.mem_ctrls_1.memoryStateTime::ACT    4371046500                       # Time in different power states
system.mem_ctrls_1.memoryStateTime::ACT_PDN  47233735000                       # Time in different power states
system.pwrStateResidencyTicks::UNDEFINED 111707602500                       # Cumulative time (in ticks) in various power states
system.cpu_voltage_domain.voltage                   1                       # Voltage in Volts
system.cpu_clk_domain.clock                       500                       # Clock period in ticks
system.cpu.dstage2_mmu.stage2_tlb.walker.pwrStateResidencyTicks::UNDEFINED 111707602500                       # Cumulative time (in ticks) in various power states
system.cpu.dstage2_mmu.stage2_tlb.walker.walks            0                       # Table walker walks requested
system.cpu.dstage2_mmu.stage2_tlb.walker.walkRequestOrigin_Requested::Data            0                       # Table walker requests started/completed, data/inst
system.cpu.dstage2_mmu.stage2_tlb.walker.walkRequestOrigin_Requested::Inst            0                       # Table walker requests started/completed, data/inst
system.cpu.dstage2_mmu.stage2_tlb.walker.walkRequestOrigin_Requested::total            0                       # Table walker requests started/completed, data/inst
system.cpu.dstage2_mmu.stage2_tlb.walker.walkRequestOrigin_Completed::Data            0                       # Table walker requests started/completed, data/inst
system.cpu.dstage2_mmu.stage2_tlb.walker.walkRequestOrigin_Completed::Inst            0                       # Table walker requests started/completed, data/inst
system.cpu.dstage2_mmu.stage2_tlb.walker.walkRequestOrigin_Completed::total            0                       # Table walker requests started/completed, data/inst
system.cpu.dstage2_mmu.stage2_tlb.walker.walkRequestOrigin::total            0                       # Table walker requests started/completed, data/inst
system.cpu.dstage2_mmu.stage2_tlb.inst_hits            0                       # ITB inst hits
system.cpu.dstage2_mmu.stage2_tlb.inst_misses            0                       # ITB inst misses
system.cpu.dstage2_mmu.stage2_tlb.read_hits            0                       # DTB read hits
system.cpu.dstage2_mmu.stage2_tlb.read_misses            0                       # DTB read misses
system.cpu.dstage2_mmu.stage2_tlb.write_hits            0                       # DTB write hits
system.cpu.dstage2_mmu.stage2_tlb.write_misses            0                       # DTB write misses
system.cpu.dstage2_mmu.stage2_tlb.flush_tlb            0                       # Number of times complete TLB was flushed
system.cpu.dstage2_mmu.stage2_tlb.flush_tlb_mva            0                       # Number of times TLB was flushed by MVA
system.cpu.dstage2_mmu.stage2_tlb.flush_tlb_mva_asid            0                       # Number of times TLB was flushed by MVA & ASID
system.cpu.dstage2_mmu.stage2_tlb.flush_tlb_asid            0                       # Number of times TLB was flushed by ASID
system.cpu.dstage2_mmu.stage2_tlb.flush_entries            0                       # Number of entries that have been flushed from TLB
system.cpu.dstage2_mmu.stage2_tlb.align_faults            0                       # Number of TLB faults due to alignment restrictions
system.cpu.dstage2_mmu.stage2_tlb.prefetch_faults            0                       # Number of TLB faults due to prefetch
system.cpu.dstage2_mmu.stage2_tlb.domain_faults            0                       # Number of TLB faults due to domain restrictions
system.cpu.dstage2_mmu.stage2_tlb.perms_faults            0                       # Number of TLB faults due to permissions restrictions
system.cpu.dstage2_mmu.stage2_tlb.read_accesses            0                       # DTB read accesses
system.cpu.dstage2_mmu.stage2_tlb.write_accesses            0                       # DTB write accesses
system.cpu.dstage2_mmu.stage2_tlb.inst_accesses            0                       # ITB inst accesses
system.cpu.dstage2_mmu.stage2_tlb.hits              0                       # DTB hits
system.cpu.dstage2_mmu.stage2_tlb.misses            0                       # DTB misses
system.cpu.dstage2_mmu.stage2_tlb.accesses            0                       # DTB accesses
system.cpu.dtb.walker.pwrStateResidencyTicks::UNDEFINED 111707602500                       # Cumulative time (in ticks) in various power states
system.cpu.dtb.walker.walks                         0                       # Table walker walks requested
system.cpu.dtb.walker.walkRequestOrigin_Requested::Data            0                       # Table walker requests started/completed, data/inst
system.cpu.dtb.walker.walkRequestOrigin_Requested::Inst            0                       # Table walker requests started/completed, data/inst
system.cpu.dtb.walker.walkRequestOrigin_Requested::total            0                       # Table walker requests started/completed, data/inst
system.cpu.dtb.walker.walkRequestOrigin_Completed::Data            0                       # Table walker requests started/completed, data/inst
system.cpu.dtb.walker.walkRequestOrigin_Completed::Inst            0                       # Table walker requests started/completed, data/inst
system.cpu.dtb.walker.walkRequestOrigin_Completed::total            0                       # Table walker requests started/completed, data/inst
system.cpu.dtb.walker.walkRequestOrigin::total            0                       # Table walker requests started/completed, data/inst
system.cpu.dtb.inst_hits                            0                       # ITB inst hits
system.cpu.dtb.inst_misses                          0                       # ITB inst misses
system.cpu.dtb.read_hits                            0                       # DTB read hits
system.cpu.dtb.read_misses                          0                       # DTB read misses
system.cpu.dtb.write_hits                           0                       # DTB write hits
system.cpu.dtb.write_misses                         0                       # DTB write misses
system.cpu.dtb.flush_tlb                            0                       # Number of times complete TLB was flushed
system.cpu.dtb.flush_tlb_mva                        0                       # Number of times TLB was flushed by MVA
system.cpu.dtb.flush_tlb_mva_asid                   0                       # Number of times TLB was flushed by MVA & ASID
system.cpu.dtb.flush_tlb_asid                       0                       # Number of times TLB was flushed by ASID
system.cpu.dtb.flush_entries                        0                       # Number of entries that have been flushed from TLB
system.cpu.dtb.align_faults                         0                       # Number of TLB faults due to alignment restrictions
system.cpu.dtb.prefetch_faults                      0                       # Number of TLB faults due to prefetch
system.cpu.dtb.domain_faults                        0                       # Number of TLB faults due to domain restrictions
system.cpu.dtb.perms_faults                         0                       # Number of TLB faults due to permissions restrictions
system.cpu.dtb.read_accesses                        0                       # DTB read accesses
system.cpu.dtb.write_accesses                       0                       # DTB write accesses
system.cpu.dtb.inst_accesses                        0                       # ITB inst accesses
system.cpu.dtb.hits                                 0                       # DTB hits
system.cpu.dtb.misses                               0                       # DTB misses
system.cpu.dtb.accesses                             0                       # DTB accesses
system.cpu.istage2_mmu.stage2_tlb.walker.pwrStateResidencyTicks::UNDEFINED 111707602500                       # Cumulative time (in ticks) in various power states
system.cpu.istage2_mmu.stage2_tlb.walker.walks            0                       # Table walker walks requested
system.cpu.istage2_mmu.stage2_tlb.walker.walkRequestOrigin_Requested::Data            0                       # Table walker requests started/completed, data/inst
system.cpu.istage2_mmu.stage2_tlb.walker.walkRequestOrigin_Requested::Inst            0                       # Table walker requests started/completed, data/inst
system.cpu.istage2_mmu.stage2_tlb.walker.walkRequestOrigin_Requested::total            0                       # Table walker requests started/completed, data/inst
system.cpu.istage2_mmu.stage2_tlb.walker.walkRequestOrigin_Completed::Data            0                       # Table walker requests started/completed, data/inst
system.cpu.istage2_mmu.stage2_tlb.walker.walkRequestOrigin_Completed::Inst            0                       # Table walker requests started/completed, data/inst
system.cpu.istage2_mmu.stage2_tlb.walker.walkRequestOrigin_Completed::total            0                       # Table walker requests started/completed, data/inst
system.cpu.istage2_mmu.stage2_tlb.walker.walkRequestOrigin::total            0                       # Table walker requests started/completed, data/inst
system.cpu.istage2_mmu.stage2_tlb.inst_hits            0                       # ITB inst hits
system.cpu.istage2_mmu.stage2_tlb.inst_misses            0                       # ITB inst misses
system.cpu.istage2_mmu.stage2_tlb.read_hits            0                       # DTB read hits
system.cpu.istage2_mmu.stage2_tlb.read_misses            0                       # DTB read misses
system.cpu.istage2_mmu.stage2_tlb.write_hits            0                       # DTB write hits
system.cpu.istage2_mmu.stage2_tlb.write_misses            0                       # DTB write misses
system.cpu.istage2_mmu.stage2_tlb.flush_tlb            0                       # Number of times complete TLB was flushed
system.cpu.istage2_mmu.stage2_tlb.flush_tlb_mva            0                       # Number of times TLB was flushed by MVA
system.cpu.istage2_mmu.stage2_tlb.flush_tlb_mva_asid            0                       # Number of times TLB was flushed by MVA & ASID
system.cpu.istage2_mmu.stage2_tlb.flush_tlb_asid            0                       # Number of times TLB was flushed by ASID
system.cpu.istage2_mmu.stage2_tlb.flush_entries            0                       # Number of entries that have been flushed from TLB
system.cpu.istage2_mmu.stage2_tlb.align_faults            0                       # Number of TLB faults due to alignment restrictions
system.cpu.istage2_mmu.stage2_tlb.prefetch_faults            0                       # Number of TLB faults due to prefetch
system.cpu.istage2_mmu.stage2_tlb.domain_faults            0                       # Number of TLB faults due to domain restrictions
system.cpu.istage2_mmu.stage2_tlb.perms_faults            0                       # Number of TLB faults due to permissions restrictions
system.cpu.istage2_mmu.stage2_tlb.read_accesses            0                       # DTB read accesses
system.cpu.istage2_mmu.stage2_tlb.write_accesses            0                       # DTB write accesses
system.cpu.istage2_mmu.stage2_tlb.inst_accesses            0                       # ITB inst accesses
system.cpu.istage2_mmu.stage2_tlb.hits              0                       # DTB hits
system.cpu.istage2_mmu.stage2_tlb.misses            0                       # DTB misses
system.cpu.istage2_mmu.stage2_tlb.accesses            0                       # DTB accesses
system.cpu.itb.walker.pwrStateResidencyTicks::UNDEFINED 111707602500                       # Cumulative time (in ticks) in various power states
system.cpu.itb.walker.walks                         0                       # Table walker walks requested
system.cpu.itb.walker.walkRequestOrigin_Requested::Data            0                       # Table walker requests started/completed, data/inst
system.cpu.itb.walker.walkRequestOrigin_Requested::Inst            0                       # Table walker requests started/completed, data/inst
system.cpu.itb.walker.walkRequestOrigin_Requested::total            0                       # Table walker requests started/completed, data/inst
system.cpu.itb.walker.walkRequestOrigin_Completed::Data            0                       # Table walker requests started/completed, data/inst
system.cpu.itb.walker.walkRequestOrigin_Completed::Inst            0                       # Table walker requests started/completed, data/inst
system.cpu.itb.walker.walkRequestOrigin_Completed::total            0                       # Table walker requests started/completed, data/inst
system.cpu.itb.walker.walkRequestOrigin::total            0                       # Table walker requests started/completed, data/inst
system.cpu.itb.inst_hits                            0                       # ITB inst hits
system.cpu.itb.inst_misses                          0                       # ITB inst misses
system.cpu.itb.read_hits                            0                       # DTB read hits
system.cpu.itb.read_misses                          0                       # DTB read misses
system.cpu.itb.write_hits                           0                       # DTB write hits
system.cpu.itb.write_misses                         0                       # DTB write misses
system.cpu.itb.flush_tlb                            0                       # Number of times complete TLB was flushed
system.cpu.itb.flush_tlb_mva                        0                       # Number of times TLB was flushed by MVA
system.cpu.itb.flush_tlb_mva_asid                   0                       # Number of times TLB was flushed by MVA & ASID
system.cpu.itb.flush_tlb_asid                       0                       # Number of times TLB was flushed by ASID
system.cpu.itb.flush_entries                        0                       # Number of entries that have been flushed from TLB
system.cpu.itb.align_faults                         0                       # Number of TLB faults due to alignment restrictions
system.cpu.itb.prefetch_faults                      0                       # Number of TLB faults due to prefetch
system.cpu.itb.domain_faults                        0                       # Number of TLB faults due to domain restrictions
system.cpu.itb.perms_faults                         0                       # Number of TLB faults due to permissions restrictions
system.cpu.itb.read_accesses                        0                       # DTB read accesses
system.cpu.itb.write_accesses                       0                       # DTB write accesses
system.cpu.itb.inst_accesses                        0                       # ITB inst accesses
system.cpu.itb.hits                                 0                       # DTB hits
system.cpu.itb.misses                               0                       # DTB misses
system.cpu.itb.accesses                             0                       # DTB accesses
system.cpu.workload.numSyscalls                   239                       # Number of system calls
system.cpu.pwrStateResidencyTicks::ON    111707602500                       # Cumulative time (in ticks) in various power states
system.cpu.numCycles                        223415205                       # number of cpu cycles simulated
system.cpu.numWorkItemsStarted                      0                       # number of work items this cpu started
system.cpu.numWorkItemsCompleted                    0                       # number of work items this cpu completed
system.cpu.committedInsts                    43681711                       # Number of instructions committed
system.cpu.committedOps                      46438296                       # Number of ops (including micro ops) committed
system.cpu.num_int_alu_accesses              36551152                       # Number of integer alu accesses
system.cpu.num_fp_alu_accesses                     16                       # Number of float alu accesses
system.cpu.num_vec_alu_accesses                     0                       # Number of vector alu accesses
system.cpu.num_func_calls                      479840                       # number of times a function call or return occured
system.cpu.num_conditional_control_insts      9756863                       # number of instructions that are conditional controls
system.cpu.num_int_insts                     36551152                       # number of integer instructions
system.cpu.num_fp_insts                            16                       # number of float instructions
system.cpu.num_vec_insts                            0                       # number of vector instructions
system.cpu.num_int_register_reads            62405820                       # number of times the integer registers were read
system.cpu.num_int_register_writes           21331323                       # number of times the integer registers were written
system.cpu.num_fp_register_reads                   16                       # number of times the floating registers were read
system.cpu.num_fp_register_writes                   0                       # number of times the floating registers were written
system.cpu.num_vec_register_reads                   0                       # number of times the vector registers were read
system.cpu.num_vec_register_writes                  0                       # number of times the vector registers were written
system.cpu.num_cc_register_reads            167328399                       # number of times the CC registers were read
system.cpu.num_cc_register_writes            30215580                       # number of times the CC registers were written
system.cpu.num_mem_refs                      14199997                       # number of memory refs
system.cpu.num_load_insts                     9180679                       # Number of load instructions
system.cpu.num_store_insts                    5019318                       # Number of store instructions
system.cpu.num_idle_cycles                          0                       # Number of idle cycles
system.cpu.num_busy_cycles                  223415205                       # Number of busy cycles
system.cpu.not_idle_fraction                        1                       # Percentage of non-idle cycles
system.cpu.idle_fraction                            0                       # Percentage of idle cycles
system.cpu.Branches                          10612420                       # Number of branches fetched
system.cpu.op_class::No_OpClass                     0      0.00%      0.00% # Class of executed instruction
system.cpu.op_class::IntAlu                  32367985     69.48%     69.48% # Class of executed instruction
system.cpu.op_class::IntMult                    19468      0.04%     69.52% # Class of executed instruction
system.cpu.op_class::IntDiv                         0      0.00%     69.52% # Class of executed instruction
system.cpu.op_class::FloatAdd                       0      0.00%     69.52% # Class of executed instruction
system.cpu.op_class::FloatCmp                       0      0.00%     69.52% # Class of executed instruction
system.cpu.op_class::FloatCvt                       0      0.00%     69.52% # Class of executed instruction
system.cpu.op_class::FloatMult                      0      0.00%     69.52% # Class of executed instruction
system.cpu.op_class::FloatMultAcc                   0      0.00%     69.52% # Class of executed instruction
system.cpu.op_class::FloatDiv                       0      0.00%     69.52% # Class of executed instruction
system.cpu.op_class::FloatMisc                      0      0.00%     69.52% # Class of executed instruction
system.cpu.op_class::FloatSqrt                      0      0.00%     69.52% # Class of executed instruction
system.cpu.op_class::SimdAdd                        0      0.00%     69.52% # Class of executed instruction
system.cpu.op_class::SimdAddAcc                     0      0.00%     69.52% # Class of executed instruction
system.cpu.op_class::SimdAlu                        0      0.00%     69.52% # Class of executed instruction
system.cpu.op_class::SimdCmp                        0      0.00%     69.52% # Class of executed instruction
system.cpu.op_class::SimdCvt                        0      0.00%     69.52% # Class of executed instruction
system.cpu.op_class::SimdMisc                       0      0.00%     69.52% # Class of executed instruction
system.cpu.op_class::SimdMult                       0      0.00%     69.52% # Class of executed instruction
system.cpu.op_class::SimdMultAcc                    0      0.00%     69.52% # Class of executed instruction
system.cpu.op_class::SimdShift                      0      0.00%     69.52% # Class of executed instruction
system.cpu.op_class::SimdShiftAcc                   0      0.00%     69.52% # Class of executed instruction
system.cpu.op_class::SimdSqrt                       0      0.00%     69.52% # Class of executed instruction
system.cpu.op_class::SimdFloatAdd                   0      0.00%     69.52% # Class of executed instruction
system.cpu.op_class::SimdFloatAlu                   0      0.00%     69.52% # Class of executed instruction
system.cpu.op_class::SimdFloatCmp                   0      0.00%     69.52% # Class of executed instruction
system.cpu.op_class::SimdFloatCvt                   0      0.00%     69.52% # Class of executed instruction
system.cpu.op_class::SimdFloatDiv                   0      0.00%     69.52% # Class of executed instruction
system.cpu.op_class::SimdFloatMisc                  0      0.00%     69.52% # Class of executed instruction
system.cpu.op_class::SimdFloatMult                  0      0.00%     69.52% # Class of executed instruction
system.cpu.op_class::SimdFloatMultAcc               0      0.00%     69.52% # Class of executed instruction
system.cpu.op_class::SimdFloatSqrt                  0      0.00%     69.52% # Class of executed instruction
system.cpu.op_class::MemRead                  9180679     19.71%     89.23% # Class of executed instruction
system.cpu.op_class::MemWrite                 5019302     10.77%    100.00% # Class of executed instruction
system.cpu.op_class::FloatMemRead                   0      0.00%    100.00% # Class of executed instruction
system.cpu.op_class::FloatMemWrite                 16      0.00%    100.00% # Class of executed instruction
system.cpu.op_class::IprAccess                      0      0.00%    100.00% # Class of executed instruction
system.cpu.op_class::InstPrefetch                   0      0.00%    100.00% # Class of executed instruction
system.cpu.op_class::total                   46587450                       # Class of executed instruction
system.cpu.dcache.tags.pwrStateResidencyTicks::UNDEFINED 111707602500                       # Cumulative time (in ticks) in various power states
system.cpu.dcache.tags.tagsinuse           510.452251                       # Cycle average of tags in use
system.cpu.dcache.tags.total_refs            14162918                       # Total number of references to valid blocks.
system.cpu.dcache.tags.sampled_refs            492467                       # Sample count of references to valid blocks.
system.cpu.dcache.tags.avg_refs             28.759121                       # Average number of references to valid blocks.
system.cpu.dcache.tags.warmup_cycle            258500                       # Cycle when the warmup percentage was hit.
system.cpu.dcache.tags.occ_blocks::.cpu.data   510.452251                       # Average occupied blocks per requestor
system.cpu.dcache.tags.occ_percent::.cpu.data     0.996977                       # Average percentage of cache occupancy
system.cpu.dcache.tags.occ_percent::total     0.996977                       # Average percentage of cache occupancy
system.cpu.dcache.tags.occ_task_id_blocks::1024          512                       # Occupied blocks per task id
system.cpu.dcache.tags.age_task_id_blocks_1024::0           24                       # Occupied blocks per task id
system.cpu.dcache.tags.age_task_id_blocks_1024::1          296                       # Occupied blocks per task id
system.cpu.dcache.tags.age_task_id_blocks_1024::2          124                       # Occupied blocks per task id
system.cpu.dcache.tags.age_task_id_blocks_1024::3           47                       # Occupied blocks per task id
system.cpu.dcache.tags.age_task_id_blocks_1024::4           21                       # Occupied blocks per task id
system.cpu.dcache.tags.occ_task_id_percent::1024            1                       # Percentage of cache occupancy per task id
system.cpu.dcache.tags.tag_accesses          57144139                       # Number of tag accesses
system.cpu.dcache.tags.data_accesses         57144139                       # Number of data accesses
system.cpu.dcache.pwrStateResidencyTicks::UNDEFINED 111707602500                       # Cumulative time (in ticks) in various power states
system.cpu.dcache.ReadReq_hits::.cpu.data      8630939                       # number of ReadReq hits
system.cpu.dcache.ReadReq_hits::total         8630939                       # number of ReadReq hits
system.cpu.dcache.WriteReq_hits::.cpu.data      4849052                       # number of WriteReq hits
system.cpu.dcache.WriteReq_hits::total        4849052                       # number of WriteReq hits
system.cpu.dcache.LoadLockedReq_hits::.cpu.data        95230                       # number of LoadLockedReq hits
system.cpu.dcache.LoadLockedReq_hits::total        95230                       # number of LoadLockedReq hits
system.cpu.dcache.StoreCondReq_hits::.cpu.data        95230                       # number of StoreCondReq hits
system.cpu.dcache.StoreCondReq_hits::total        95230                       # number of StoreCondReq hits
system.cpu.dcache.demand_hits::.cpu.data     13479991                       # number of demand (read+write) hits
system.cpu.dcache.demand_hits::total         13479991                       # number of demand (read+write) hits
system.cpu.dcache.overall_hits::.cpu.data     13479991                       # number of overall hits
system.cpu.dcache.overall_hits::total        13479991                       # number of overall hits
system.cpu.dcache.ReadReq_misses::.cpu.data       479120                       # number of ReadReq misses
system.cpu.dcache.ReadReq_misses::total        479120                       # number of ReadReq misses
system.cpu.dcache.WriteReq_misses::.cpu.data        13347                       # number of WriteReq misses
system.cpu.dcache.WriteReq_misses::total        13347                       # number of WriteReq misses
system.cpu.dcache.demand_misses::.cpu.data       492467                       # number of demand (read+write) misses
system.cpu.dcache.demand_misses::total         492467                       # number of demand (read+write) misses
system.cpu.dcache.overall_misses::.cpu.data       492467                       # number of overall misses
system.cpu.dcache.overall_misses::total        492467                       # number of overall misses
system.cpu.dcache.ReadReq_miss_latency::.cpu.data  29072653000                       # number of ReadReq miss cycles
system.cpu.dcache.ReadReq_miss_latency::total  29072653000                       # number of ReadReq miss cycles
system.cpu.dcache.WriteReq_miss_latency::.cpu.data    909596500                       # number of WriteReq miss cycles
system.cpu.dcache.WriteReq_miss_latency::total    909596500                       # number of WriteReq miss cycles
system.cpu.dcache.demand_miss_latency::.cpu.data  29982249500                       # number of demand (read+write) miss cycles
system.cpu.dcache.demand_miss_latency::total  29982249500                       # number of demand (read+write) miss cycles
system.cpu.dcache.overall_miss_latency::.cpu.data  29982249500                       # number of overall miss cycles
system.cpu.dcache.overall_miss_latency::total  29982249500                       # number of overall miss cycles
system.cpu.dcache.ReadReq_accesses::.cpu.data      9110059                       # number of ReadReq accesses(hits+misses)
system.cpu.dcache.ReadReq_accesses::total      9110059                       # number of ReadReq accesses(hits+misses)
system.cpu.dcache.WriteReq_accesses::.cpu.data      4862399                       # number of WriteReq accesses(hits+misses)
system.cpu.dcache.WriteReq_accesses::total      4862399                       # number of WriteReq accesses(hits+misses)
system.cpu.dcache.LoadLockedReq_accesses::.cpu.data        95230                       # number of LoadLockedReq accesses(hits+misses)
system.cpu.dcache.LoadLockedReq_accesses::total        95230                       # number of LoadLockedReq accesses(hits+misses)
system.cpu.dcache.StoreCondReq_accesses::.cpu.data        95230                       # number of StoreCondReq accesses(hits+misses)
system.cpu.dcache.StoreCondReq_accesses::total        95230                       # number of StoreCondReq accesses(hits+misses)
system.cpu.dcache.demand_accesses::.cpu.data     13972458                       # number of demand (read+write) accesses
system.cpu.dcache.demand_accesses::total     13972458                       # number of demand (read+write) accesses
system.cpu.dcache.overall_accesses::.cpu.data     13972458                       # number of overall (read+write) accesses
system.cpu.dcache.overall_accesses::total     13972458                       # number of overall (read+write) accesses
system.cpu.dcache.ReadReq_miss_rate::.cpu.data     0.052592                       # miss rate for ReadReq accesses
system.cpu.dcache.ReadReq_miss_rate::total     0.052592                       # miss rate for ReadReq accesses
system.cpu.dcache.WriteReq_miss_rate::.cpu.data     0.002745                       # miss rate for WriteReq accesses
system.cpu.dcache.WriteReq_miss_rate::total     0.002745                       # miss rate for WriteReq accesses
system.cpu.dcache.demand_miss_rate::.cpu.data     0.035246                       # miss rate for demand accesses
system.cpu.dcache.demand_miss_rate::total     0.035246                       # miss rate for demand accesses
system.cpu.dcache.overall_miss_rate::.cpu.data     0.035246                       # miss rate for overall accesses
system.cpu.dcache.overall_miss_rate::total     0.035246                       # miss rate for overall accesses
system.cpu.dcache.ReadReq_avg_miss_latency::.cpu.data 60679.272416                       # average ReadReq miss latency
system.cpu.dcache.ReadReq_avg_miss_latency::total 60679.272416                       # average ReadReq miss latency
system.cpu.dcache.WriteReq_avg_miss_latency::.cpu.data 68149.883869                       # average WriteReq miss latency
system.cpu.dcache.WriteReq_avg_miss_latency::total 68149.883869                       # average WriteReq miss latency
system.cpu.dcache.demand_avg_miss_latency::.cpu.data 60881.743345                       # average overall miss latency
system.cpu.dcache.demand_avg_miss_latency::total 60881.743345                       # average overall miss latency
system.cpu.dcache.overall_avg_miss_latency::.cpu.data 60881.743345                       # average overall miss latency
system.cpu.dcache.overall_avg_miss_latency::total 60881.743345                       # average overall miss latency
system.cpu.dcache.blocked_cycles::no_mshrs            0                       # number of cycles access was blocked
system.cpu.dcache.blocked_cycles::no_targets            0                       # number of cycles access was blocked
system.cpu.dcache.blocked::no_mshrs                 0                       # number of cycles access was blocked
system.cpu.dcache.blocked::no_targets               0                       # number of cycles access was blocked
system.cpu.dcache.avg_blocked_cycles::no_mshrs          nan                       # average number of cycles each access was blocked
system.cpu.dcache.avg_blocked_cycles::no_targets          nan                       # average number of cycles each access was blocked
system.cpu.dcache.writebacks::.writebacks       107869                       # number of writebacks
system.cpu.dcache.writebacks::total            107869                       # number of writebacks
system.cpu.dcache.ReadReq_mshr_misses::.cpu.data       479120                       # number of ReadReq MSHR misses
system.cpu.dcache.ReadReq_mshr_misses::total       479120                       # number of ReadReq MSHR misses
system.cpu.dcache.WriteReq_mshr_misses::.cpu.data        13347                       # number of WriteReq MSHR misses
system.cpu.dcache.WriteReq_mshr_misses::total        13347                       # number of WriteReq MSHR misses
system.cpu.dcache.demand_mshr_misses::.cpu.data       492467                       # number of demand (read+write) MSHR misses
system.cpu.dcache.demand_mshr_misses::total       492467                       # number of demand (read+write) MSHR misses
system.cpu.dcache.overall_mshr_misses::.cpu.data       492467                       # number of overall MSHR misses
system.cpu.dcache.overall_mshr_misses::total       492467                       # number of overall MSHR misses
system.cpu.dcache.ReadReq_mshr_miss_latency::.cpu.data  28593533000                       # number of ReadReq MSHR miss cycles
system.cpu.dcache.ReadReq_mshr_miss_latency::total  28593533000                       # number of ReadReq MSHR miss cycles
system.cpu.dcache.WriteReq_mshr_miss_latency::.cpu.data    896249500                       # number of WriteReq MSHR miss cycles
system.cpu.dcache.WriteReq_mshr_miss_latency::total    896249500                       # number of WriteReq MSHR miss cycles
system.cpu.dcache.demand_mshr_miss_latency::.cpu.data  29489782500                       # number of demand (read+write) MSHR miss cycles
system.cpu.dcache.demand_mshr_miss_latency::total  29489782500                       # number of demand (read+write) MSHR miss cycles
system.cpu.dcache.overall_mshr_miss_latency::.cpu.data  29489782500                       # number of overall MSHR miss cycles
system.cpu.dcache.overall_mshr_miss_latency::total  29489782500                       # number of overall MSHR miss cycles
system.cpu.dcache.ReadReq_mshr_miss_rate::.cpu.data     0.052592                       # mshr miss rate for ReadReq accesses
system.cpu.dcache.ReadReq_mshr_miss_rate::total     0.052592                       # mshr miss rate for ReadReq accesses
system.cpu.dcache.WriteReq_mshr_miss_rate::.cpu.data     0.002745                       # mshr miss rate for WriteReq accesses
system.cpu.dcache.WriteReq_mshr_miss_rate::total     0.002745                       # mshr miss rate for WriteReq accesses
system.cpu.dcache.demand_mshr_miss_rate::.cpu.data     0.035246                       # mshr miss rate for demand accesses
system.cpu.dcache.demand_mshr_miss_rate::total     0.035246                       # mshr miss rate for demand accesses
system.cpu.dcache.overall_mshr_miss_rate::.cpu.data     0.035246                       # mshr miss rate for overall accesses
system.cpu.dcache.overall_mshr_miss_rate::total     0.035246                       # mshr miss rate for overall accesses
system.cpu.dcache.ReadReq_avg_mshr_miss_latency::.cpu.data 59679.272416                       # average ReadReq mshr miss latency
system.cpu.dcache.ReadReq_avg_mshr_miss_latency::total 59679.272416                       # average ReadReq mshr miss latency
system.cpu.dcache.WriteReq_avg_mshr_miss_latency::.cpu.data 67149.883869                       # average WriteReq mshr miss latency
system.cpu.dcache.WriteReq_avg_mshr_miss_latency::total 67149.883869                       # average WriteReq mshr miss latency
system.cpu.dcache.demand_avg_mshr_miss_latency::.cpu.data 59881.743345                       # average overall mshr miss latency
system.cpu.dcache.demand_avg_mshr_miss_latency::total 59881.743345                       # average overall mshr miss latency
system.cpu.dcache.overall_avg_mshr_miss_latency::.cpu.data 59881.743345                       # average overall mshr miss latency
system.cpu.dcache.overall_avg_mshr_miss_latency::total 59881.743345                       # average overall mshr miss latency
system.cpu.dcache.replacements                 491955                       # number of replacements
system.cpu.icache.tags.pwrStateResidencyTicks::UNDEFINED 111707602500                       # Cumulative time (in ticks) in various power states
system.cpu.icache.tags.tagsinuse           127.975561                       # Cycle average of tags in use
system.cpu.icache.tags.total_refs            43814015                       # Total number of references to valid blocks.
system.cpu.icache.tags.sampled_refs           1978267                       # Sample count of references to valid blocks.
system.cpu.icache.tags.avg_refs             22.147675                       # Average number of references to valid blocks.
system.cpu.icache.tags.warmup_cycle             87500                       # Cycle when the warmup percentage was hit.
system.cpu.icache.tags.occ_blocks::.cpu.inst   127.975561                       # Average occupied blocks per requestor
system.cpu.icache.tags.occ_percent::.cpu.inst     0.999809                       # Average percentage of cache occupancy
system.cpu.icache.tags.occ_percent::total     0.999809                       # Average percentage of cache occupancy
system.cpu.icache.tags.occ_task_id_blocks::1024          128                       # Occupied blocks per task id
system.cpu.icache.tags.age_task_id_blocks_1024::0           57                       # Occupied blocks per task id
system.cpu.icache.tags.age_task_id_blocks_1024::1           59                       # Occupied blocks per task id
system.cpu.icache.tags.age_task_id_blocks_1024::3            1                       # Occupied blocks per task id
system.cpu.icache.tags.age_task_id_blocks_1024::4           11                       # Occupied blocks per task id
system.cpu.icache.tags.occ_task_id_percent::1024            1                       # Percentage of cache occupancy per task id
system.cpu.icache.tags.tag_accesses          45792282                       # Number of tag accesses
system.cpu.icache.tags.data_accesses         45792282                       # Number of data accesses
system.cpu.icache.pwrStateResidencyTicks::UNDEFINED 111707602500                       # Cumulative time (in ticks) in various power states
system.cpu.icache.ReadReq_hits::.cpu.inst     41835748                       # number of ReadReq hits
system.cpu.icache.ReadReq_hits::total        41835748                       # number of ReadReq hits
system.cpu.icache.demand_hits::.cpu.inst     41835748                       # number of demand (read+write) hits
system.cpu.icache.demand_hits::total         41835748                       # number of demand (read+write) hits
system.cpu.icache.overall_hits::.cpu.inst     41835748                       # number of overall hits
system.cpu.icache.overall_hits::total        41835748                       # number of overall hits
system.cpu.icache.ReadReq_misses::.cpu.inst      1978267                       # number of ReadReq misses
system.cpu.icache.ReadReq_misses::total       1978267                       # number of ReadReq misses
system.cpu.icache.demand_misses::.cpu.inst      1978267                       # number of demand (read+write) misses
system.cpu.icache.demand_misses::total        1978267                       # number of demand (read+write) misses
system.cpu.icache.overall_misses::.cpu.inst      1978267                       # number of overall misses
system.cpu.icache.overall_misses::total       1978267                       # number of overall misses
system.cpu.icache.ReadReq_miss_latency::.cpu.inst  26281574000                       # number of ReadReq miss cycles
system.cpu.icache.ReadReq_miss_latency::total  26281574000                       # number of ReadReq miss cycles
system.cpu.icache.demand_miss_latency::.cpu.inst  26281574000                       # number of demand (read+write) miss cycles
system.cpu.icache.demand_miss_latency::total  26281574000                       # number of demand (read+write) miss cycles
system.cpu.icache.overall_miss_latency::.cpu.inst  26281574000                       # number of overall miss cycles
system.cpu.icache.overall_miss_latency::total  26281574000                       # number of overall miss cycles
system.cpu.icache.ReadReq_accesses::.cpu.inst     43814015                       # number of ReadReq accesses(hits+misses)
[...]
system.l2.ReadCleanReq_accesses::.cpu.inst      1978267                       # number of ReadCleanReq accesses(hits+misses)
system.l2.ReadCleanReq_accesses::total        1978267                       # number of ReadCleanReq accesses(hits+misses)
system.l2.ReadSharedReq_accesses::.cpu.data       479120                       # number of ReadSharedReq accesses(hits+misses)
system.l2.ReadSharedReq_accesses::total        479120                       # number of ReadSharedReq accesses(hits+misses)
system.l2.demand_accesses::.cpu.inst          1978267                       # number of demand (read+write) accesses
system.l2.demand_accesses::.cpu.data           492467                       # number of demand (read+write) accesses
system.l2.demand_accesses::total              2470734                       # number of demand (read+write) accesses
system.l2.overall_accesses::.cpu.inst         1978267                       # number of overall (read+write) accesses
system.l2.overall_accesses::.cpu.data          492467                       # number of overall (read+write) accesses
system.l2.overall_accesses::total             2470734                       # number of overall (read+write) accesses
system.l2.ReadExReq_miss_rate::.cpu.data     0.440324                       # miss rate for ReadExReq accesses
system.l2.ReadExReq_miss_rate::total         0.440324                       # miss rate for ReadExReq accesses
system.l2.ReadCleanReq_miss_rate::.cpu.inst     0.003881                       # miss rate for ReadCleanReq accesses
system.l2.ReadCleanReq_miss_rate::total      0.003881                       # miss rate for ReadCleanReq accesses
system.l2.ReadSharedReq_miss_rate::.cpu.data     0.637859                       # miss rate for ReadSharedReq accesses
system.l2.ReadSharedReq_miss_rate::total     0.637859                       # miss rate for ReadSharedReq accesses
system.l2.demand_miss_rate::.cpu.inst        0.003881                       # miss rate for demand accesses
system.l2.demand_miss_rate::.cpu.data        0.632505                       # miss rate for demand accesses
system.l2.demand_miss_rate::total            0.129179                       # miss rate for demand accesses
system.l2.overall_miss_rate::.cpu.inst       0.003881                       # miss rate for overall accesses
system.l2.overall_miss_rate::.cpu.data       0.632505                       # miss rate for overall accesses
system.l2.overall_miss_rate::total           0.129179                       # miss rate for overall accesses
system.l2.ReadExReq_avg_miss_latency::.cpu.data 135748.511145                       # average ReadExReq miss latency
system.l2.ReadExReq_avg_miss_latency::total 135748.511145                       # average ReadExReq miss latency
system.l2.ReadCleanReq_avg_miss_latency::.cpu.inst 82609.924459                       # average ReadCleanReq miss latency
system.l2.ReadCleanReq_avg_miss_latency::total 82609.924459                       # average ReadCleanReq miss latency
system.l2.ReadSharedReq_avg_miss_latency::.cpu.data 85248.770496                       # average ReadSharedReq miss latency
system.l2.ReadSharedReq_avg_miss_latency::total 85248.770496                       # average ReadSharedReq miss latency
system.l2.demand_avg_miss_latency::.cpu.inst 82609.924459                       # average overall miss latency
system.l2.demand_avg_miss_latency::.cpu.data 86201.574378                       # average overall miss latency
system.l2.demand_avg_miss_latency::total 86115.172042                       # average overall miss latency
system.l2.overall_avg_miss_latency::.cpu.inst 82609.924459                       # average overall miss latency
system.l2.overall_avg_miss_latency::.cpu.data 86201.574378                       # average overall miss latency
system.l2.overall_avg_miss_latency::total 86115.172042                       # average overall miss latency
system.l2.blocked_cycles::no_mshrs                  0                       # number of cycles access was blocked
system.l2.blocked_cycles::no_targets                0                       # number of cycles access was blocked
system.l2.blocked::no_mshrs                         0                       # number of cycles access was blocked
system.l2.blocked::no_targets                       0                       # number of cycles access was blocked
system.l2.avg_blocked_cycles::no_mshrs            nan                       # average number of cycles each access was blocked
system.l2.avg_blocked_cycles::no_targets          nan                       # average number of cycles each access was blocked
system.l2.writebacks::.writebacks               20639                       # number of writebacks
system.l2.writebacks::total                     20639                       # number of writebacks
system.l2.CleanEvict_mshr_misses::.writebacks        38408                       # number of CleanEvict MSHR misses
system.l2.CleanEvict_mshr_misses::total         38408                       # number of CleanEvict MSHR misses
system.l2.ReadExReq_mshr_misses::.cpu.data         5877                       # number of ReadExReq MSHR misses
system.l2.ReadExReq_mshr_misses::total           5877                       # number of ReadExReq MSHR misses
system.l2.ReadCleanReq_mshr_misses::.cpu.inst         7678                       # number of ReadCleanReq MSHR misses
system.l2.ReadCleanReq_mshr_misses::total         7678                       # number of ReadCleanReq MSHR misses
system.l2.ReadSharedReq_mshr_misses::.cpu.data       305611                       # number of ReadSharedReq MSHR misses
system.l2.ReadSharedReq_mshr_misses::total       305611                       # number of ReadSharedReq MSHR misses
system.l2.demand_mshr_misses::.cpu.inst          7678                       # number of demand (read+write) MSHR misses
system.l2.demand_mshr_misses::.cpu.data        311488                       # number of demand (read+write) MSHR misses
system.l2.demand_mshr_misses::total            319166                       # number of demand (read+write) MSHR misses
system.l2.overall_mshr_misses::.cpu.inst         7678                       # number of overall MSHR misses
system.l2.overall_mshr_misses::.cpu.data       311488                       # number of overall MSHR misses
system.l2.overall_mshr_misses::total           319166                       # number of overall MSHR misses
system.l2.ReadExReq_mshr_miss_latency::.cpu.data    739024000                       # number of ReadExReq MSHR miss cycles
system.l2.ReadExReq_mshr_miss_latency::total    739024000                       # number of ReadExReq MSHR miss cycles
system.l2.ReadCleanReq_mshr_miss_latency::.cpu.inst    557499000                       # number of ReadCleanReq MSHR miss cycles
system.l2.ReadCleanReq_mshr_miss_latency::total    557499000                       # number of ReadCleanReq MSHR miss cycles
system.l2.ReadSharedReq_mshr_miss_latency::.cpu.data  22996852000                       # number of ReadSharedReq MSHR miss cycles
system.l2.ReadSharedReq_mshr_miss_latency::total  22996852000                       # number of ReadSharedReq MSHR miss cycles
system.l2.demand_mshr_miss_latency::.cpu.inst    557499000                       # number of demand (read+write) MSHR miss cycles
system.l2.demand_mshr_miss_latency::.cpu.data  23735876000                       # number of demand (read+write) MSHR miss cycles
system.l2.demand_mshr_miss_latency::total  24293375000                       # number of demand (read+write) MSHR miss cycles
system.l2.overall_mshr_miss_latency::.cpu.inst    557499000                       # number of overall MSHR miss cycles
system.l2.overall_mshr_miss_latency::.cpu.data  23735876000                       # number of overall MSHR miss cycles
system.l2.overall_mshr_miss_latency::total  24293375000                       # number of overall MSHR miss cycles
system.l2.CleanEvict_mshr_miss_rate::.writebacks          inf                       # mshr miss rate for CleanEvict accesses
system.l2.CleanEvict_mshr_miss_rate::total          inf                       # mshr miss rate for CleanEvict accesses
system.l2.ReadExReq_mshr_miss_rate::.cpu.data     0.440324                       # mshr miss rate for ReadExReq accesses
system.l2.ReadExReq_mshr_miss_rate::total     0.440324                       # mshr miss rate for ReadExReq accesses
system.l2.ReadCleanReq_mshr_miss_rate::.cpu.inst     0.003881                       # mshr miss rate for ReadCleanReq accesses
system.l2.ReadCleanReq_mshr_miss_rate::total     0.003881                       # mshr miss rate for ReadCleanReq accesses
system.l2.ReadSharedReq_mshr_miss_rate::.cpu.data     0.637859                       # mshr miss rate for ReadSharedReq accesses
system.l2.ReadSharedReq_mshr_miss_rate::total     0.637859                       # mshr miss rate for ReadSharedReq accesses
system.l2.demand_mshr_miss_rate::.cpu.inst     0.003881                       # mshr miss rate for demand accesses
system.l2.demand_mshr_miss_rate::.cpu.data     0.632505                       # mshr miss rate for demand accesses
system.l2.demand_mshr_miss_rate::total       0.129179                       # mshr miss rate for demand accesses
system.l2.overall_mshr_miss_rate::.cpu.inst     0.003881                       # mshr miss rate for overall accesses
system.l2.overall_mshr_miss_rate::.cpu.data     0.632505                       # mshr miss rate for overall accesses
system.l2.overall_mshr_miss_rate::total      0.129179                       # mshr miss rate for overall accesses
system.l2.ReadExReq_avg_mshr_miss_latency::.cpu.data 125748.511145                       # average ReadExReq mshr miss latency
system.l2.ReadExReq_avg_mshr_miss_latency::total 125748.511145                       # average ReadExReq mshr miss latency
system.l2.ReadCleanReq_avg_mshr_miss_latency::.cpu.inst 72609.924459                       # average ReadCleanReq mshr miss latency
system.l2.ReadCleanReq_avg_mshr_miss_latency::total 72609.924459                       # average ReadCleanReq mshr miss latency
system.l2.ReadSharedReq_avg_mshr_miss_latency::.cpu.data 75248.770496                       # average ReadSharedReq mshr miss latency
system.l2.ReadSharedReq_avg_mshr_miss_latency::total 75248.770496                       # average ReadSharedReq mshr miss latency
system.l2.demand_avg_mshr_miss_latency::.cpu.inst 72609.924459                       # average overall mshr miss latency
system.l2.demand_avg_mshr_miss_latency::.cpu.data 76201.574378                       # average overall mshr miss latency
system.l2.demand_avg_mshr_miss_latency::total 76115.172042                       # average overall mshr miss latency
system.l2.overall_avg_mshr_miss_latency::.cpu.inst 72609.924459                       # average overall mshr miss latency
system.l2.overall_avg_mshr_miss_latency::.cpu.data 76201.574378                       # average overall mshr miss latency
system.l2.overall_avg_mshr_miss_latency::total 76115.172042                       # average overall mshr miss latency
system.l2.replacements                         344668                       # number of replacements
system.membus.snoop_filter.tot_requests        637075                       # Total number of requests made to the snoop filter.
system.membus.snoop_filter.hit_single_requests       317909                       # Number of requests hitting in the snoop filter with a single holder of the requested data.
system.membus.snoop_filter.hit_multi_requests            0                       # Number of requests hitting in the snoop filter with multiple (>1) holders of the requested data.
system.membus.snoop_filter.tot_snoops               0                       # Total number of snoops made to the snoop filter.
system.membus.snoop_filter.hit_single_snoops            0                       # Number of snoops hitting in the snoop filter with a single holder of the requested data.
system.membus.snoop_filter.hit_multi_snoops            0                       # Number of snoops hitting in the snoop filter with multiple (>1) holders of the requested data.
system.membus.pwrStateResidencyTicks::UNDEFINED 111707602500                       # Cumulative time (in ticks) in various power states
system.membus.trans_dist::ReadResp             313289                       # Transaction distribution
system.membus.trans_dist::WritebackDirty        20639                       # Transaction distribution
system.membus.trans_dist::CleanEvict           297270                       # Transaction distribution
system.membus.trans_dist::ReadExReq              5877                       # Transaction distribution
system.membus.trans_dist::ReadExResp             5877                       # Transaction distribution
system.membus.trans_dist::ReadSharedReq        313289                       # Transaction distribution
system.membus.pkt_count_system.l2.mem_side::system.mem_ctrls.port       956241                       # Packet count per connected master and slave (bytes)
system.membus.pkt_count::total                 956241                       # Packet count per connected master and slave (bytes)
system.membus.pkt_size_system.l2.mem_side::system.mem_ctrls.port      5436880                       # Cumulative packet size per connected master and slave (bytes)
system.membus.pkt_size::total                 5436880                       # Cumulative packet size per connected master and slave (bytes)
system.membus.snoops                                0                       # Total snoops (count)
system.membus.snoopTraffic                          0                       # Total snoop traffic (bytes)
system.membus.snoop_fanout::samples            319166                       # Request fanout histogram
system.membus.snoop_fanout::mean                    0                       # Request fanout histogram
system.membus.snoop_fanout::stdev                   0                       # Request fanout histogram
system.membus.snoop_fanout::underflows              0      0.00%      0.00% # Request fanout histogram
system.membus.snoop_fanout::0                  319166    100.00%    100.00% # Request fanout histogram
system.membus.snoop_fanout::1                       0      0.00%    100.00% # Request fanout histogram
system.membus.snoop_fanout::overflows               0      0.00%    100.00% # Request fanout histogram
system.membus.snoop_fanout::min_value               0                       # Request fanout histogram
system.membus.snoop_fanout::max_value               0                       # Request fanout histogram
system.membus.snoop_fanout::total              319166                       # Request fanout histogram
system.membus.reqLayer0.occupancy           658786500                       # Layer occupancy (ticks)
system.membus.reqLayer0.utilization               0.6                       # Layer utilization (%)
system.membus.respLayer1.occupancy          726258750                       # Layer occupancy (ticks)
system.membus.respLayer1.utilization              0.7                       # Layer utilization (%)
system.tol2bus.snoop_filter.tot_requests      4940828                       # Total number of requests made to the snoop filter.
system.tol2bus.snoop_filter.hit_single_requests      2470095                       # Number of requests hitting in the snoop filter with a single holder of the requested data.
system.tol2bus.snoop_filter.hit_multi_requests        10444                       # Number of requests hitting in the snoop filter with multiple (>1) holders of the requested data.
system.tol2bus.snoop_filter.tot_snoops          65167                       # Total number of snoops made to the snoop filter.
system.tol2bus.snoop_filter.hit_single_snoops        65167                       # Number of snoops hitting in the snoop filter with a single holder of the requested data.
system.tol2bus.snoop_filter.hit_multi_snoops            0                       # Number of snoops hitting in the snoop filter with multiple (>1) holders of the requested data.
system.tol2bus.pwrStateResidencyTicks::UNDEFINED 111707602500                       # Cumulative time (in ticks) in various power states
system.tol2bus.trans_dist::ReadResp           2457387                       # Transaction distribution
system.tol2bus.trans_dist::WritebackDirty       128508                       # Transaction distribution
system.tol2bus.trans_dist::WritebackClean      1978139                       # Transaction distribution
system.tol2bus.trans_dist::CleanEvict          708115                       # Transaction distribution
system.tol2bus.trans_dist::ReadExReq            13347                       # Transaction distribution
system.tol2bus.trans_dist::ReadExResp           13347                       # Transaction distribution
system.tol2bus.trans_dist::ReadCleanReq       1978267                       # Transaction distribution
system.tol2bus.trans_dist::ReadSharedReq       479120                       # Transaction distribution
system.tol2bus.pkt_count_system.cpu.icache.mem_side::system.l2.cpu_side      5934673                       # Packet count per connected master and slave (bytes)
system.tol2bus.pkt_count_system.cpu.dcache.mem_side::system.l2.cpu_side      1476889                       # Packet count per connected master and slave (bytes)
system.tol2bus.pkt_count::total               7411562                       # Packet count per connected master and slave (bytes)
system.tol2bus.pkt_size_system.cpu.icache.mem_side::system.l2.cpu_side     63302496                       # Cumulative packet size per connected master and slave (bytes)
system.tol2bus.pkt_size_system.cpu.dcache.mem_side::system.l2.cpu_side      9605376                       # Cumulative packet size per connected master and slave (bytes)
system.tol2bus.pkt_size::total               72907872                       # Cumulative packet size per connected master and slave (bytes)
system.tol2bus.snoops                          344668                       # Total snoops (count)
system.tol2bus.snoopTraffic                    330224                       # Total snoop traffic (bytes)
system.tol2bus.snoop_fanout::samples          2815402                       # Request fanout histogram
system.tol2bus.snoop_fanout::mean            0.026857                       # Request fanout histogram
system.tol2bus.snoop_fanout::stdev           0.161664                       # Request fanout histogram
system.tol2bus.snoop_fanout::underflows             0      0.00%      0.00% # Request fanout histogram
system.tol2bus.snoop_fanout::0                2739790     97.31%     97.31% # Request fanout histogram
system.tol2bus.snoop_fanout::1                  75612      2.69%    100.00% # Request fanout histogram
system.tol2bus.snoop_fanout::2                      0      0.00%    100.00% # Request fanout histogram
system.tol2bus.snoop_fanout::overflows              0      0.00%    100.00% # Request fanout histogram
system.tol2bus.snoop_fanout::min_value              0                       # Request fanout histogram
system.tol2bus.snoop_fanout::max_value              1                       # Request fanout histogram
system.tol2bus.snoop_fanout::total            2815402                       # Request fanout histogram
system.tol2bus.reqLayer0.occupancy         3513418000                       # Layer occupancy (ticks)
system.tol2bus.reqLayer0.utilization              3.1                       # Layer utilization (%)
system.tol2bus.respLayer0.occupancy        1978267000                       # Layer occupancy (ticks)
system.tol2bus.respLayer0.utilization             1.8                       # Layer utilization (%)
system.tol2bus.respLayer1.occupancy         492467000                       # Layer occupancy (ticks)
system.tol2bus.respLayer1.utilization             0.4                       # Layer utilization (%)

---------- End Simulation Statistics   ----------
