
---------- Begin Simulation Statistics ----------
sim_seconds                                  0.111142                       # Number of seconds simulated
sim_ticks                                111141730500                       # Number of ticks simulated
final_tick                               111141730500                       # Number of ticks from beginning of simulation (restored from checkpoints and never reset)
sim_freq                                 1000000000000                       # Frequency of simulated ticks
host_inst_rate                                 753478                       # Simulator instruction rate (inst/s)
host_op_rate                                   801027                       # Simulator op (including micro ops) rate (op/s)
host_tick_rate                             1917113693                       # Simulator tick rate (ticks/s)
host_mem_usage                                 669852                       # Number of bytes of host memory used
host_seconds                                    57.97                       # Real time elapsed on the host
sim_insts                                    43681711                       # Number of instructions simulated
sim_ops                                      46438296                       # Number of ops (including micro ops) simulated
system.voltage_domain.voltage                       1                       # Voltage in Volts
system.clk_domain.clock                          1000                       # Clock period in ticks
system.mem_ctrls.pwrStateResidencyTicks::UNDEFINED 111141730500                       # Cumulative time (in ticks) in various power states
system.mem_ctrls.bytes_read::.cpu.inst         127232                       # Number of bytes read from this memory
system.mem_ctrls.bytes_read::.cpu.data        4994560                       # Number of bytes read from this memory
system.mem_ctrls.bytes_read::total            5121792                       # Number of bytes read from this memory
system.mem_ctrls.bytes_inst_read::.cpu.inst       127232                       # Number of instructions bytes read from this memory
system.mem_ctrls.bytes_inst_read::total        127232                       # Number of instructions bytes read from this memory
system.mem_ctrls.bytes_written::.writebacks       334896                       # Number of bytes written to this memory
system.mem_ctrls.bytes_written::total          334896                       # Number of bytes written to this memory
system.mem_ctrls.num_reads::.cpu.inst            7952                       # Number of read requests responded to by this memory
system.mem_ctrls.num_reads::.cpu.data          312160                       # Number of read requests responded to by this memory
system.mem_ctrls.num_reads::total              320112                       # Number of read requests responded to by this memory
system.mem_ctrls.num_writes::.writebacks        20931                       # Number of write requests responded to by this memory
system.mem_ctrls.num_writes::total              20931                       # Number of write requests responded to by this memory
system.mem_ctrls.bw_read::.cpu.inst           1144773                       # Total read bandwidth from this memory (bytes/s)
system.mem_ctrls.bw_read::.cpu.data          44938656                       # Total read bandwidth from this memory (bytes/s)
system.mem_ctrls.bw_read::total              46083429                       # Total read bandwidth from this memory (bytes/s)
system.mem_ctrls.bw_inst_read::.cpu.inst      1144773                       # Instruction read bandwidth from this memory (bytes/s)
system.mem_ctrls.bw_inst_read::total          1144773                       # Instruction read bandwidth from this memory (bytes/s)
system.mem_ctrls.bw_write::.writebacks        3013234                       # Write bandwidth from this memory (bytes/s)
system.mem_ctrls.bw_write::total              3013234                       # Write bandwidth from this memory (bytes/s)
system.mem_ctrls.bw_total::.writebacks        3013234                       # Total bandwidth to/from this memory (bytes/s)
system.mem_ctrls.bw_total::.cpu.inst          1144773                       # Total bandwidth to/from this memory (bytes/s)
system.mem_ctrls.bw_total::.cpu.data         44938656                       # Total bandwidth to/from this memory (bytes/s)
system.mem_ctrls.bw_total::total             49096662                       # Total bandwidth to/from this memory (bytes/s)
system.mem_ctrls.avgPriority_.writebacks::samples     14486.00                       # Average QoS priority value for accepted requests
system.mem_ctrls.avgPriority_.cpu.inst::samples      7952.00                       # Average QoS priority value for accepted requests
system.mem_ctrls.avgPriority_.cpu.data::samples    309619.00                       # Average QoS priority value for accepted requests
system.mem_ctrls.priorityMinLatency      0.000000018750                       # per QoS priority minimum request to response latency (s)
system.mem_ctrls.priorityMaxLatency      0.006334148500                       # per QoS priority maximum request to response latency (s)
system.mem_ctrls.numReadWriteTurnArounds          817                       # Number of turnarounds from READ to WRITE
system.mem_ctrls.numWriteReadTurnArounds          817                       # Number of turnarounds from WRITE to READ
system.mem_ctrls.numStayReadState              679125                       # Number of times bus staying in READ state
system.mem_ctrls.numStayWriteState              13783                       # Number of times bus staying in WRITE state
system.mem_ctrls.readReqs                      320112                       # Number of read requests accepted
system.mem_ctrls.writeReqs                      20931                       # Number of write requests accepted
system.mem_ctrls.readBursts                    320112                       # Number of DRAM read bursts, including those serviced by the write queue
system.mem_ctrls.writeBursts                    20931                       # Number of DRAM write bursts, including those merged in the write queue
system.mem_ctrls.bytesReadDRAM               20324544                       # Total number of bytes read from DRAM
system.mem_ctrls.bytesReadWrQ                  162624                       # Total number of bytes read from write queue
system.mem_ctrls.bytesWritten                  925760                       # Total number of bytes written to DRAM
system.mem_ctrls.bytesReadSys                 5121792                       # Total read bytes from the system interface side
system.mem_ctrls.bytesWrittenSys               334896                       # Total written bytes from the system interface side
system.mem_ctrls.servicedByWrQ                   2541                       # Number of DRAM read bursts serviced by the write queue
system.mem_ctrls.mergedWrBursts                  6445                       # Number of DRAM write bursts merged with an existing one
system.mem_ctrls.neitherReadNorWriteReqs            0                       # Number of requests that are neither read nor write
system.mem_ctrls.perBankRdBursts::0             58323                       # Per bank write bursts
system.mem_ctrls.perBankRdBursts::1             59702                       # Per bank write bursts
system.mem_ctrls.perBankRdBursts::2             21273                       # Per bank write bursts
system.mem_ctrls.perBankRdBursts::3               637                       # Per bank write bursts
system.mem_ctrls.perBankRdBursts::4               937                       # Per bank write bursts
system.mem_ctrls.perBankRdBursts::5              3861                       # Per bank write bursts
system.mem_ctrls.perBankRdBursts::6              7523                       # Per bank write bursts
system.mem_ctrls.perBankRdBursts::7             19601                       # Per bank write bursts
system.mem_ctrls.perBankRdBursts::8               950                       # Per bank write bursts
system.mem_ctrls.perBankRdBursts::9              1372                       # Per bank write bursts
system.mem_ctrls.perBankRdBursts::10               37                       # Per bank write bursts
system.mem_ctrls.perBankRdBursts::11              703                       # Per bank write bursts
system.mem_ctrls.perBankRdBursts::12              786                       # Per bank write bursts
system.mem_ctrls.perBankRdBursts::13            28068                       # Per bank write bursts
system.mem_ctrls.perBankRdBursts::14            56034                       # Per bank write bursts
system.mem_ctrls.perBankRdBursts::15            57764                       # Per bank write bursts
system.mem_ctrls.perBankWrBursts::0               277                       # Per bank write bursts
system.mem_ctrls.perBankWrBursts::1               259                       # Per bank write bursts
system.mem_ctrls.perBankWrBursts::2               382                       # Per bank write bursts
system.mem_ctrls.perBankWrBursts::3                16                       # Per bank write bursts
system.mem_ctrls.perBankWrBursts::4                22                       # Per bank write bursts
system.mem_ctrls.perBankWrBursts::5               227                       # Per bank write bursts
system.mem_ctrls.perBankWrBursts::6              3067                       # Per bank write bursts
system.mem_ctrls.perBankWrBursts::7              9384                       # Per bank write bursts
system.mem_ctrls.perBankWrBursts::8                 0                       # Per bank write bursts
system.mem_ctrls.perBankWrBursts::9                 0                       # Per bank write bursts
system.mem_ctrls.perBankWrBursts::10                0                       # Per bank write bursts
system.mem_ctrls.perBankWrBursts::11                0                       # Per bank write bursts
system.mem_ctrls.perBankWrBursts::12              111                       # Per bank write bursts
system.mem_ctrls.perBankWrBursts::13              217                       # Per bank write bursts
system.mem_ctrls.perBankWrBursts::14              250                       # Per bank write bursts
system.mem_ctrls.perBankWrBursts::15              253                       # Per bank write bursts
system.mem_ctrls.numRdRetry                         0                       # Number of times read queue was full causing retry
system.mem_ctrls.numWrRetry                         0                       # Number of times write queue was full causing retry
system.mem_ctrls.totGap                  111141652500                       # Total gap between requests
system.mem_ctrls.readPktSize::0                     0                       # Read request sizes (log2)
system.mem_ctrls.readPktSize::1                     0                       # Read request sizes (log2)
system.mem_ctrls.readPktSize::2                     0                       # Read request sizes (log2)
system.mem_ctrls.readPktSize::3                     0                       # Read request sizes (log2)
system.mem_ctrls.readPktSize::4                320112                       # Read request sizes (log2)
system.mem_ctrls.readPktSize::5                     0                       # Read request sizes (log2)
system.mem_ctrls.readPktSize::6                     0                       # Read request sizes (log2)
system.mem_ctrls.writePktSize::0                    0                       # Write request sizes (log2)
system.mem_ctrls.writePktSize::1                    0                       # Write request sizes (log2)
system.mem_ctrls.writePktSize::2                    0                       # Write request sizes (log2)
system.mem_ctrls.writePktSize::3                    0                       # Write request sizes (log2)
system.mem_ctrls.writePktSize::4                20931                       # Write request sizes (log2)
system.mem_ctrls.writePktSize::5                    0                       # Write request sizes (log2)
system.mem_ctrls.writePktSize::6                    0                       # Write request sizes (log2)
system.mem_ctrls.rdQLenPdf::0                  317500                       # What read queue length does an incoming req see
system.mem_ctrls.rdQLenPdf::1                      71                       # What read queue length does an incoming req see
system.mem_ctrls.rdQLenPdf::2                       0                       # What read queue length does an incoming req see
system.mem_ctrls.rdQLenPdf::3                       0                       # What read queue length does an incoming req see
system.mem_ctrls.rdQLenPdf::4                       0                       # What read queue length does an incoming req see
system.mem_ctrls.rdQLenPdf::5                       0                       # What read queue length does an incoming req see
system.mem_ctrls.rdQLenPdf::6                       0                       # What read queue length does an incoming req see
system.mem_ctrls.rdQLenPdf::7                       0                       # What read queue length does an incoming req see
system.mem_ctrls.rdQLenPdf::8                       0                       # What read queue length does an incoming req see
system.mem_ctrls.rdQLenPdf::9                       0                       # What read queue length does an incoming req see
system.mem_ctrls.rdQLenPdf::10                      0                       # What read queue length does an incoming req see
system.mem_ctrls.rdQLenPdf::11                      0                       # What read queue length does an incoming req see
system.mem_ctrls.rdQLenPdf::12                      0                       # What read queue length does an incoming req see
system.mem_ctrls.rdQLenPdf::13                      0                       # What read queue length does an incoming req see
system.mem_ctrls.rdQLenPdf::14                      0                       # What read queue length does an incoming req see
system.mem_ctrls.rdQLenPdf::15                      0                       # What read queue length does an incoming req see
system.mem_ctrls.rdQLenPdf::16                      0                       # What read queue length does an incoming req see
system.mem_ctrls.rdQLenPdf::17                      0                       # What read queue length does an incoming req see
system.mem_ctrls.rdQLenPdf::18                      0                       # What read queue length does an incoming req see
system.mem_ctrls.rdQLenPdf::19                      0                       # What read queue length does an incoming req see
system.mem_ctrls.rdQLenPdf::20                      0                       # What read queue length does an incoming req see
system.mem_ctrls.rdQLenPdf::21                      0                       # What read queue length does an incoming req see
system.mem_ctrls.rdQLenPdf::22                      0                       # What read queue length does an incoming req see
system.mem_ctrls.rdQLenPdf::23                      0                       # What read queue length does an incoming req see
system.mem_ctrls.rdQLenPdf::24                      0                       # What read queue length does an incoming req see
system.mem_ctrls.rdQLenPdf::25                      0                       # What read queue length does an incoming req see
system.mem_ctrls.rdQLenPdf::26                      0                       # What read queue length does an incoming req see
system.mem_ctrls.rdQLenPdf::27                      0                       # What read queue length does an incoming req see
system.mem_ctrls.rdQLenPdf::28                      0                       # What read queue length does an incoming req see
system.mem_ctrls.rdQLenPdf::29                      0                       # What read queue length does an incoming req see
system.mem_ctrls.rdQLenPdf::30                      0                       # What read queue length does an incoming req see
system.mem_ctrls.rdQLenPdf::31                      0                       # What read queue length does an incoming req see
system.mem_ctrls.wrQLenPdf::0                       1                       # What write queue length does an incoming req see
system.mem_ctrls.wrQLenPdf::1                       1                       # What write queue length does an incoming req see
system.mem_ctrls.wrQLenPdf::2                       1                       # What write queue length does an incoming req see
system.mem_ctrls.wrQLenPdf::3                       1                       # What write queue length does an incoming req see
system.mem_ctrls.wrQLenPdf::4                       1                       # What write queue length does an incoming req see
system.mem_ctrls.wrQLenPdf::5                       1                       # What write queue length does an incoming req see
system.mem_ctrls.wrQLenPdf::6                       1                       # What write queue length does an incoming req see
system.mem_ctrls.wrQLenPdf::7                       1                       # What write queue length does an incoming req see
system.mem_ctrls.wrQLenPdf::8                       1                       # What write queue length does an incoming req see
system.mem_ctrls.wrQLenPdf::9                       1                       # What write queue length does an incoming req see
system.mem_ctrls.wrQLenPdf::10                      1                       # What write queue length does an incoming req see
system.mem_ctrls.wrQLenPdf::11                      1                       # What write queue length does an incoming req see
system.mem_ctrls.wrQLenPdf::12                      1                       # What write queue length does an incoming req see
system.mem_ctrls.wrQLenPdf::13                      1                       # What write queue length does an incoming req see
system.mem_ctrls.wrQLenPdf::14                      1                       # What write queue length does an incoming req see
system.mem_ctrls.wrQLenPdf::15                    693                       # What write queue length does an incoming req see
system.mem_ctrls.wrQLenPdf::16                    700                       # What write queue length does an incoming req see
system.mem_ctrls.wrQLenPdf::17                    815                       # What write queue length does an incoming req see
system.mem_ctrls.wrQLenPdf::18                    820                       # What write queue length does an incoming req see
system.mem_ctrls.wrQLenPdf::19                    818                       # What write queue length does an incoming req see
system.mem_ctrls.wrQLenPdf::20                    819                       # What write queue length does an incoming req see
system.mem_ctrls.wrQLenPdf::21                    817                       # What write queue length does an incoming req see
system.mem_ctrls.wrQLenPdf::22                    817                       # What write queue length does an incoming req see
system.mem_ctrls.wrQLenPdf::23                    817                       # What write queue length does an incoming req see
system.mem_ctrls.wrQLenPdf::24                    817                       # What write queue length does an incoming req see
system.mem_ctrls.wrQLenPdf::25                    817                       # What write queue length does an incoming req see
system.mem_ctrls.wrQLenPdf::26                    818                       # What write queue length does an incoming req see
system.mem_ctrls.wrQLenPdf::27                    817                       # What write queue length does an incoming req see
system.mem_ctrls.wrQLenPdf::28                    817                       # What write queue length does an incoming req see
system.mem_ctrls.wrQLenPdf::29                    818                       # What write queue length does an incoming req see
system.mem_ctrls.wrQLenPdf::30                    817                       # What write queue length does an incoming req see
system.mem_ctrls.wrQLenPdf::31                    817                       # What write queue length does an incoming req see
system.mem_ctrls.wrQLenPdf::32                    817                       # What write queue length does an incoming req see
system.mem_ctrls.wrQLenPdf::33                      0                       # What write queue length does an incoming req see
system.mem_ctrls.wrQLenPdf::34                      0                       # What write queue length does an incoming req see
system.mem_ctrls.wrQLenPdf::35                      0                       # What write queue length does an incoming req see
system.mem_ctrls.wrQLenPdf::36                      0                       # What write queue length does an incoming req see
system.mem_ctrls.wrQLenPdf::37                      0                       # What write queue length does an incoming req see
system.mem_ctrls.wrQLenPdf::38                      0                       # What write queue length does an incoming req see
system.mem_ctrls.wrQLenPdf::39                      0                       # What write queue length does an incoming req see
system.mem_ctrls.wrQLenPdf::40                      0                       # What write queue length does an incoming req see
system.mem_ctrls.wrQLenPdf::41                      0                       # What write queue length does an incoming req see
system.mem_ctrls.wrQLenPdf::42                      0                       # What write queue length does an incoming req see
system.mem_ctrls.wrQLenPdf::43                      0                       # What write queue length does an incoming req see
system.mem_ctrls.wrQLenPdf::44                      0                       # What write queue length does an incoming req see
system.mem_ctrls.wrQLenPdf::45                      0                       # What write queue length does an incoming req see
system.mem_ctrls.wrQLenPdf::46                      0                       # What write queue length does an incoming req see
system.mem_ctrls.wrQLenPdf::47                      0                       # What write queue length does an incoming req see
system.mem_ctrls.wrQLenPdf::48                      0                       # What write queue length does an incoming req see
system.mem_ctrls.wrQLenPdf::49                      0                       # What write queue length does an incoming req see
system.mem_ctrls.wrQLenPdf::50                      0                       # What write queue length does an incoming req see
system.mem_ctrls.wrQLenPdf::51                      0                       # What write queue length does an incoming req see
system.mem_ctrls.wrQLenPdf::52                      0                       # What write queue length does an incoming req see
system.mem_ctrls.wrQLenPdf::53                      0                       # What write queue length does an incoming req see
system.mem_ctrls.wrQLenPdf::54                      0                       # What write queue length does an incoming req see
system.mem_ctrls.wrQLenPdf::55                      0                       # What write queue length does an incoming req see
system.mem_ctrls.wrQLenPdf::56                      0                       # What write queue length does an incoming req see
system.mem_ctrls.wrQLenPdf::57                      0                       # What write queue length does an incoming req see
system.mem_ctrls.wrQLenPdf::58                      0                       # What write queue length does an incoming req see
system.mem_ctrls.wrQLenPdf::59                      0                       # What write queue length does an incoming req see
system.mem_ctrls.wrQLenPdf::60                      0                       # What write queue length does an incoming req see
system.mem_ctrls.wrQLenPdf::61                      0                       # What write queue length does an incoming req see
system.mem_ctrls.wrQLenPdf::62                      0                       # What write queue length does an incoming req see
system.mem_ctrls.wrQLenPdf::63                      0                       # What write queue length does an incoming req see
system.mem_ctrls.bytesPerActivate::samples        42865                       # Bytes accessed per row activation
system.mem_ctrls.bytesPerActivate::mean    495.715199                       # Bytes accessed per row activation
system.mem_ctrls.bytesPerActivate::gmean   304.007694                       # Bytes accessed per row activation
system.mem_ctrls.bytesPerActivate::stdev   392.500624                       # Bytes accessed per row activation
system.mem_ctrls.bytesPerActivate::0-127        10702     24.97%     24.97% # Bytes accessed per row activation
system.mem_ctrls.bytesPerActivate::128-255         6530     15.23%     40.20% # Bytes accessed per row activation
system.mem_ctrls.bytesPerActivate::256-383         3092      7.21%     47.41% # Bytes accessed per row activation
system.mem_ctrls.bytesPerActivate::384-511         2319      5.41%     52.82% # Bytes accessed per row activation
system.mem_ctrls.bytesPerActivate::512-639         3096      7.22%     60.05% # Bytes accessed per row activation
system.mem_ctrls.bytesPerActivate::640-767         2737      6.39%     66.43% # Bytes accessed per row activation
system.mem_ctrls.bytesPerActivate::768-895         1793      4.18%     70.61% # Bytes accessed per row activation
system.mem_ctrls.bytesPerActivate::896-1023         1151      2.69%     73.30% # Bytes accessed per row activation
system.mem_ctrls.bytesPerActivate::1024-1151        11445     26.70%    100.00% # Bytes accessed per row activation
system.mem_ctrls.bytesPerActivate::total        42865                       # Bytes accessed per row activation
system.mem_ctrls.rdPerTurnAround::samples          817                       # Reads before turning the bus around for writes
system.mem_ctrls.rdPerTurnAround::mean     388.332925                       # Reads before turning the bus around for writes
system.mem_ctrls.rdPerTurnAround::gmean    223.030100                       # Reads before turning the bus around for writes
system.mem_ctrls.rdPerTurnAround::stdev    441.376728                       # Reads before turning the bus around for writes
system.mem_ctrls.rdPerTurnAround::0-255           380     46.51%     46.51% # Reads before turning the bus around for writes
system.mem_ctrls.rdPerTurnAround::256-511          217     26.56%     73.07% # Reads before turning the bus around for writes
system.mem_ctrls.rdPerTurnAround::512-767          141     17.26%     90.33% # Reads before turning the bus around for writes
system.mem_ctrls.rdPerTurnAround::768-1023           35      4.28%     94.61% # Reads before turning the bus around for writes
system.mem_ctrls.rdPerTurnAround::1024-1279           12      1.47%     96.08% # Reads before turning the bus around for writes
system.mem_ctrls.rdPerTurnAround::1280-1535           10      1.22%     97.31% # Reads before turning the bus around for writes
system.mem_ctrls.rdPerTurnAround::1536-1791            7      0.86%     98.16% # Reads before turning the bus around for writes
system.mem_ctrls.rdPerTurnAround::1792-2047            5      0.61%     98.78% # Reads before turning the bus around for writes
system.mem_ctrls.rdPerTurnAround::2048-2303            6      0.73%     99.51% # Reads before turning the bus around for writes
system.mem_ctrls.rdPerTurnAround::2560-2815            2      0.24%     99.76% # Reads before turning the bus around for writes
system.mem_ctrls.rdPerTurnAround::2816-3071            1      0.12%     99.88% # Reads before turning the bus around for writes
system.mem_ctrls.rdPerTurnAround::5632-5887            1      0.12%    100.00% # Reads before turning the bus around for writes
system.mem_ctrls.rdPerTurnAround::total           817                       # Reads before turning the bus around for writes
system.mem_ctrls.wrPerTurnAround::samples          817                       # Writes before turning the bus around for reads
system.mem_ctrls.wrPerTurnAround::mean      17.705018                       # Writes before turning the bus around for reads
system.mem_ctrls.wrPerTurnAround::gmean     17.690060                       # Writes before turning the bus around for reads
system.mem_ctrls.wrPerTurnAround::stdev      0.708759                       # Writes before turning the bus around for reads
system.mem_ctrls.wrPerTurnAround::16              118     14.44%     14.44% # Writes before turning the bus around for reads
system.mem_ctrls.wrPerTurnAround::17                7      0.86%     15.30% # Writes before turning the bus around for reads
system.mem_ctrls.wrPerTurnAround::18              690     84.46%     99.76% # Writes before turning the bus around for reads
system.mem_ctrls.wrPerTurnAround::19                2      0.24%    100.00% # Writes before turning the bus around for reads
system.mem_ctrls.wrPerTurnAround::total           817                       # Writes before turning the bus around for reads
system.mem_ctrls.masterReadBytes::.cpu.inst       127232                       # Per-master bytes read from memory
system.mem_ctrls.masterReadBytes::.cpu.data      4953904                       # Per-master bytes read from memory
system.mem_ctrls.masterWriteBytes::.writebacks       231440                       # Per-master bytes write to memory
system.mem_ctrls.masterReadRate::.cpu.inst 1144772.529882463859                       # Per-master bytes read from memory rate (Bytes/sec)
system.mem_ctrls.masterReadRate::.cpu.data 44572852.858359985054                       # Per-master bytes read from memory rate (Bytes/sec)
system.mem_ctrls.masterWriteRate::.writebacks 2082386.147478601662                       # Per-master bytes write to memory rate (Bytes/sec)
system.mem_ctrls.masterReadAccesses::.cpu.inst         7952                       # Per-master read serviced memory accesses
system.mem_ctrls.masterReadAccesses::.cpu.data       312160                       # Per-master read serviced memory accesses
system.mem_ctrls.masterWriteAccesses::.writebacks        20931                       # Per-master write serviced memory accesses
system.mem_ctrls.masterReadTotalLat::.cpu.inst    254462500                       # Per-master read total memory access latency
system.mem_ctrls.masterReadTotalLat::.cpu.data  11069545500                       # Per-master read total memory access latency
system.mem_ctrls.masterWriteTotalLat::.writebacks 2574342546250                       # Per-master write total memory access latency
system.mem_ctrls.masterReadAvgLat::.cpu.inst     31999.81                       # Per-master read average memory access latency
system.mem_ctrls.masterReadAvgLat::.cpu.data     35461.13                       # Per-master read average memory access latency
system.mem_ctrls.masterWriteAvgLat::.writebacks 122991856.40                       # Per-master write average memory access latency
system.mem_ctrls.totQLat                   5369551750                       # Total ticks spent queuing
system.mem_ctrls.totMemAccLat             11324008000                       # Total ticks spent from burst creation until serviced by the DRAM
system.mem_ctrls.totBusLat                 1587855000                       # Total ticks spent in databus transfers
system.mem_ctrls.avgQLat                     16908.19                       # Average queueing delay per DRAM burst
system.mem_ctrls.avgBusLat                    5000.00                       # Average bus latency per DRAM burst
system.mem_ctrls.avgMemAccLat                35658.19                       # Average memory access latency per DRAM burst
system.mem_ctrls.avgRdBW                       182.87                       # Average DRAM read bandwidth in MiByte/s
system.mem_ctrls.avgWrBW                         8.33                       # Average achieved write bandwidth in MiByte/s
system.mem_ctrls.avgRdBWSys                     46.08                       # Average system read bandwidth in MiByte/s
system.mem_ctrls.avgWrBWSys                      3.01                       # Average system write bandwidth in MiByte/s
system.mem_ctrls.peakBW                      12800.00                       # Theoretical peak bandwidth in MiByte/s
system.mem_ctrls.busUtil                         1.49                       # Data bus utilization in percentage
system.mem_ctrls.busUtilRead                     1.43                       # Data bus utilization in percentage for reads
system.mem_ctrls.busUtilWrite                    0.07                       # Data bus utilization in percentage for writes
system.mem_ctrls.avgRdQLen                       1.00                       # Average read queue length when enqueuing
system.mem_ctrls.avgWrQLen                      24.03                       # Average write queue length when enqueuing
system.mem_ctrls.readRowHits                   276017                       # Number of row buffer hits during reads
system.mem_ctrls.writeRowHits                   13147                       # Number of row buffer hits during writes
system.mem_ctrls.readRowHitRate                 86.92                       # Row buffer hit rate for reads
system.mem_ctrls.writeRowHitRate                90.76                       # Row buffer hit rate for writes
system.mem_ctrls.avgGap                     325887.51                       # Average gap between requests
system.mem_ctrls.pageHitRate                    87.08                       # Row buffer hit rate, read and write combined
system.mem_ctrls_0.actEnergy                194900580                       # Energy for activate commands per rank (pJ)
system.mem_ctrls_0.preEnergy                103576935                       # Energy for precharge commands per rank (pJ)
system.mem_ctrls_0.readEnergy              1227058980                       # Energy for read commands per rank (pJ)
system.mem_ctrls_0.writeEnergy               71169480                       # Energy for write commands per rank (pJ)
system.mem_ctrls_0.refreshEnergy         8297025360.000001                       # Energy for refresh commands per rank (pJ)
system.mem_ctrls_0.actBackEnergy           4401520620                       # Energy for active background per rank (pJ)
system.mem_ctrls_0.preBackEnergy            319053600                       # Energy for precharge background per rank (pJ)
system.mem_ctrls_0.actPowerDownEnergy     30165610680                       # Energy for active power-down per rank (pJ)
system.mem_ctrls_0.prePowerDownEnergy     11074199040                       # Energy for precharge power-down per rank (pJ)
system.mem_ctrls_0.selfRefreshEnergy       2130932640                       # Energy for self refresh per rank (pJ)
system.mem_ctrls_0.totalEnergy            57993732255                       # Total energy per rank (pJ)
system.mem_ctrls_0.averagePower            521.799796                       # Core power per rank (mW)
system.mem_ctrls_0.totalIdleTime         100639253750                       # Total Idle time Per DRAM Rank
system.mem_ctrls_0.memoryStateTime::IDLE    467579500                       # Time in different power states
system.mem_ctrls_0.memoryStateTime::REF    3509740000                       # Time in different power states
system.mem_ctrls_0.memoryStateTime::SREF   5647343000                       # Time in different power states
system.mem_ctrls_0.memoryStateTime::PRE_PDN  28839175000                       # Time in different power states
system.mem_ctrls_0.memoryStateTime::ACT    6524939250                       # Time in different power states
system.mem_ctrls_0.memoryStateTime::ACT_PDN  66152953750                       # Time in different power states
system.mem_ctrls_1.actEnergy                111205500                       # Energy for activate commands per rank (pJ)
system.mem_ctrls_1.preEnergy                 59095740                       # Energy for precharge commands per rank (pJ)
system.mem_ctrls_1.readEnergy              1040397960                       # Energy for read commands per rank (pJ)
system.mem_ctrls_1.writeEnergy                4337820                       # Energy for write commands per rank (pJ)
system.mem_ctrls_1.refreshEnergy         6022857360.000001                       # Energy for refresh commands per rank (pJ)
system.mem_ctrls_1.actBackEnergy           3002175750                       # Energy for active background per rank (pJ)
system.mem_ctrls_1.preBackEnergy            334855680                       # Energy for precharge background per rank (pJ)
system.mem_ctrls_1.actPowerDownEnergy     21113678370                       # Energy for active power-down per rank (pJ)
system.mem_ctrls_1.prePowerDownEnergy      8846639040                       # Energy for precharge power-down per rank (pJ)
system.mem_ctrls_1.selfRefreshEnergy       9255834660                       # Energy for self refresh per rank (pJ)
system.mem_ctrls_1.totalEnergy            49796360220                       # Total energy per rank (pJ)
system.mem_ctrls_1.averagePower            448.043773                       # Core power per rank (mW)
system.mem_ctrls_1.totalIdleTime         103674160250                       # Total Idle time Per DRAM Rank
system.mem_ctrls_1.memoryStateTime::IDLE    578913000                       # Time in different power states
system.mem_ctrls_1.memoryStateTime::REF    2547740000                       # Time in different power states
system.mem_ctrls_1.memoryStateTime::SREF  34334210500                       # Time in different power states
system.mem_ctrls_1.memoryStateTime::PRE_PDN  23038023250                       # Time in different power states
system.mem_ctrls_1.memoryStateTime::ACT    4340875500                       # Time in different power states
system.mem_ctrls_1.memoryStateTime::ACT_PDN  46301968250                       # Time in different power states
system.pwrStateResidencyTicks::UNDEFINED 111141730500                       # Cumulative time (in ticks) in various power states
system.cpu_voltage_domain.voltage                   1                       # Voltage in Volts
system.cpu_clk_domain.clock                       500                       # Clock period in ticks
system.cpu.dstage2_mmu.stage2_tlb.walker.pwrStateResidencyTicks::UNDEFINED 111141730500                       # Cumulative time (in ticks) in various power states
system.cpu.dstage2_mmu.stage2_tlb.walker.walks            0                       # Table walker walks requested
system.cpu.dstage2_mmu.stage2_tlb.walker.walkRequestOrigin_Requested::Data            0                       # Table walker requests started/completed, data/inst
system.cpu.dstage2_mmu.stage2_tlb.walker.walkRequestOrigin_Requested::Inst            0                       # Table walker requests started/completed, data/inst
system.cpu.dstage2_mmu.stage2_tlb.walker.walkRequestOrigin_Requested::total            0                       # Table walker requests started/completed, data/inst
system.cpu.dstage2_mmu.stage2_tlb.walker.walkRequestOrigin_Completed::Data            0                       # Table walker requests started/completed, data/inst
system.cpu.dstage2_mmu.stage2_tlb.walker.walkRequestOrigin_Completed::Inst            0                       # Table walker requests started/completed, data/inst
system.cpu.dstage2_mmu.stage2_tlb.walker.walkRequestOrigin_Completed::total            0                       # Table walker requests started/completed, data/inst
system.cpu.dstage2_mmu.stage2_tlb.walker.walkRequestOrigin::total            0                       # Table walker requests started/completed, data/inst
system.cpu.dstage2_mmu.stage2_tlb.inst_hits            0                       # ITB inst hits
system.cpu.dstage2_mmu.stage2_tlb.inst_misses            0                       # ITB inst misses
system.cpu.dstage2_mmu.stage2_tlb.read_hits            0                       # DTB read hits
system.cpu.dstage2_mmu.stage2_tlb.read_misses            0                       # DTB read misses
system.cpu.dstage2_mmu.stage2_tlb.write_hits            0                       # DTB write hits
system.cpu.dstage2_mmu.stage2_tlb.write_misses            0                       # DTB write misses
system.cpu.dstage2_mmu.stage2_tlb.flush_tlb            0                       # Number of times complete TLB was flushed
system.cpu.dstage2_mmu.stage2_tlb.flush_tlb_mva            0                       # Number of times TLB was flushed by MVA
system.cpu.dstage2_mmu.stage2_tlb.flush_tlb_mva_asid            0                       # Number of times TLB was flushed by MVA & ASID
system.cpu.dstage2_mmu.stage2_tlb.flush_tlb_asid            0                       # Number of times TLB was flushed by ASID
system.cpu.dstage2_mmu.stage2_tlb.flush_entries            0                       # Number of entries that have been flushed from TLB
system.cpu.dstage2_mmu.stage2_tlb.align_faults            0                       # Number of TLB faults due to alignment restrictions
system.cpu.dstage2_mmu.stage2_tlb.prefetch_faults            0                       # Number of TLB faults due to prefetch
system.cpu.dstage2_mmu.stage2_tlb.domain_faults            0                       # Number of TLB faults due to domain restrictions
system.cpu.dstage2_mmu.stage2_tlb.perms_faults            0                       # Number of TLB faults due to permissions restrictions
system.cpu.dstage2_mmu.stage2_tlb.read_accesses            0                       # DTB read accesses
system.cpu.dstage2_mmu.stage2_tlb.write_accesses            0                       # DTB write accesses
system.cpu.dstage2_mmu.stage2_tlb.inst_accesses            0                       # ITB inst accesses
system.cpu.dstage2_mmu.stage2_tlb.hits              0                       # DTB hits
system.cpu.dstage2_mmu.stage2_tlb.misses            0                       # DTB misses
system.cpu.dstage2_mmu.stage2_tlb.accesses            0                       # DTB accesses
system.cpu.dtb.walker.pwrStateResidencyTicks::UNDEFINED 111141730500                       # Cumulative time (in ticks) in various power states
system.cpu.dtb.walker.walks                         0                       # Table walker walks requested
system.cpu.dtb.walker.walkRequestOrigin_Requested::Data            0                       # Table walker requests started/completed, data/inst
system.cpu.dtb.walker.walkRequestOrigin_Requested::Inst            0                       # Table walker requests started/completed, data/inst
system.cpu.dtb.walker.walkRequestOrigin_Requested::total            0                       # Table walker requests started/completed, data/inst
system.cpu.dtb.walker.walkRequestOrigin_Completed::Data            0                       # Table walker requests started/completed, data/inst
system.cpu.dtb.walker.walkRequestOrigin_Completed::Inst            0                       # Table walker requests started/completed, data/inst
system.cpu.dtb.walker.walkRequestOrigin_Completed::total            0                       # Table walker requests started/completed, data/inst
system.cpu.dtb.walker.walkRequestOrigin::total            0                       # Table walker requests started/completed, data/inst
system.cpu.dtb.inst_hits                            0                       # ITB inst hits
system.cpu.dtb.inst_misses                          0                       # ITB inst misses
system.cpu.dtb.read_hits                            0                       # DTB read hits
system.cpu.dtb.read_misses                          0                       # DTB read misses
system.cpu.dtb.write_hits                           0                       # DTB write hits
system.cpu.dtb.write_misses                         0                       # DTB write misses
system.cpu.dtb.flush_tlb                            0                       # Number of times complete TLB was flushed
system.cpu.dtb.flush_tlb_mva                        0                       # Number of times TLB was flushed by MVA
system.cpu.dtb.flush_tlb_mva_asid                   0                       # Number of times TLB was flushed by MVA & ASID
system.cpu.dtb.flush_tlb_asid                       0                       # Number of times TLB was flushed by ASID
system.cpu.dtb.flush_entries                        0                       # Number of entries that have been flushed from TLB
system.cpu.dtb.align_faults                         0                       # Number of TLB faults due to alignment restrictions
system.cpu.dtb.prefetch_faults                      0                       # Number of TLB faults due to prefetch
system.cpu.dtb.domain_faults                        0                       # Number of TLB faults due to domain restrictions
system.cpu.dtb.perms_faults                         0                       # Number of TLB faults due to permissions restrictions
system.cpu.dtb.read_accesses                        0                       # DTB read accesses
system.cpu.dtb.write_accesses                       0                       # DTB write accesses
system.cpu.dtb.inst_accesses                        0                       # ITB inst accesses
system.cpu.dtb.hits                                 0                       # DTB hits
system.cpu.dtb.misses                               0                       # DTB misses
system.cpu.dtb.accesses                             0                       # DTB accesses
system.cpu.istage2_mmu.stage2_tlb.walker.pwrStateResidencyTicks::UNDEFINED 111141730500                       # Cumulative time (in ticks) in various power states
system.cpu.istage2_mmu.stage2_tlb.walker.walks            0                       # Table walker walks requested
system.cpu.istage2_mmu.stage2_tlb.walker.walkRequestOrigin_Requested::Data            0                       # Table walker requests started/completed, data/inst
system.cpu.istage2_mmu.stage2_tlb.walker.walkRequestOrigin_Requested::Inst            0                       # Table walker requests started/completed, data/inst
system.cpu.istage2_mmu.stage2_tlb.walker.walkRequestOrigin_Requested::total            0                       # Table walker requests started/completed, data/inst
system.cpu.istage2_mmu.stage2_tlb.walker.walkRequestOrigin_Completed::Data            0                       # Table walker requests started/completed, data/inst
system.cpu.istage2_mmu.stage2_tlb.walker.walkRequestOrigin_Completed::Inst            0                       # Table walker requests started/completed, data/inst
system.cpu.istage2_mmu.stage2_tlb.walker.walkRequestOrigin_Completed::total            0                       # Table walker requests started/completed, data/inst
system.cpu.istage2_mmu.stage2_tlb.walker.walkRequestOrigin::total            0                       # Table walker requests started/completed, data/inst
system.cpu.istage2_mmu.stage2_tlb.inst_hits            0                       # ITB inst hits
system.cpu.istage2_mmu.stage2_tlb.inst_misses            0                       # ITB inst misses
system.cpu.istage2_mmu.stage2_tlb.read_hits            0                       # DTB read hits
system.cpu.istage2_mmu.stage2_tlb.read_misses            0                       # DTB read misses
system.cpu.istage2_mmu.stage2_tlb.write_hits            0                       # DTB write hits
system.cpu.istage2_mmu.stage2_tlb.write_misses            0                       # DTB write misses
system.cpu.istage2_mmu.stage2_tlb.flush_tlb            0                       # Number of times complete TLB was flushed
system.cpu.istage2_mmu.stage2_tlb.flush_tlb_mva            0                       # Number of times TLB was flushed by MVA
system.cpu.istage2_mmu.stage2_tlb.flush_tlb_mva_asid            0                       # Number of times TLB was flushed by MVA & ASID
system.cpu.istage2_mmu.stage2_tlb.flush_tlb_asid            0                       # Number of times TLB was flushed by ASID
system.cpu.istage2_mmu.stage2_tlb.flush_entries            0                       # Number of entries that have been flushed from TLB
system.cpu.istage2_mmu.stage2_tlb.align_faults            0                       # Number of TLB faults due to alignment restrictions
system.cpu.istage2_mmu.stage2_tlb.prefetch_faults            0                       # Number of TLB faults due to prefetch
system.cpu.istage2_mmu.stage2_tlb.domain_faults            0                       # Number of TLB faults due to domain restrictions
system.cpu.istage2_mmu.stage2_tlb.perms_faults            0                       # Number of TLB faults due to permissions restrictions
system.cpu.istage2_mmu.stage2_tlb.read_accesses            0                       # DTB read accesses
system.cpu.istage2_mmu.stage2_tlb.write_accesses            0                       # DTB write accesses
system.cpu.istage2_mmu.stage2_tlb.inst_accesses            0                       # ITB inst accesses
system.cpu.istage2_mmu.stage2_tlb.hits              0                       # DTB hits
system.cpu.istage2_mmu.stage2_tlb.misses            0                       # DTB misses
system.cpu.istage2_mmu.stage2_tlb.accesses            0                       # DTB accesses
system.cpu.itb.walker.pwrStateResidencyTicks::UNDEFINED 111141730500                       # Cumulative time (in ticks) in various power states
system.cpu.itb.walker.walks                         0                       # Table walker walks requested
system.cpu.itb.walker.walkRequestOrigin_Requested::Data            0                       # Table walker requests started/completed, data/inst
system.cpu.itb.walker.walkRequestOrigin_Requested::Inst            0                       # Table walker requests started/completed, data/inst
system.cpu.itb.walker.walkRequestOrigin_Requested::total            0                       # Table walker requests started/completed, data/inst
system.cpu.itb.walker.walkRequestOrigin_Completed::Data            0                       # Table walker requests started/completed, data/inst
system.cpu.itb.walker.walkRequestOrigin_Completed::Inst            0                       # Table walker requests started/completed, data/inst
system.cpu.itb.walker.walkRequestOrigin_Completed::total            0                       # Table walker requests started/completed, data/inst
system.cpu.itb.walker.walkRequestOrigin::total            0                       # Table walker requests started/completed, data/inst
system.cpu.itb.inst_hits                            0                       # ITB inst hits
system.cpu.itb.inst_misses                          0                       # ITB inst misses
system.cpu.itb.read_hits                            0                       # DTB read hits
system.cpu.itb.read_misses                          0                       # DTB read misses
system.cpu.itb.write_hits                           0                       # DTB write hits
system.cpu.itb.write_misses                         0                       # DTB write misses
system.cpu.itb.flush_tlb                            0                       # Number of times complete TLB was flushed
system.cpu.itb.flush_tlb_mva                        0                       # Number of times TLB was flushed by MVA
system.cpu.itb.flush_tlb_mva_asid                   0                       # Number of times TLB was flushed by MVA & ASID
system.cpu.itb.flush_tlb_asid                       0                       # Number of times TLB was flushed by ASID
system.cpu.itb.flush_entries                        0                       # Number of entries that have been flushed from TLB
system.cpu.itb.align_faults                         0                       # Number of TLB faults due to alignment restrictions
system.cpu.itb.prefetch_faults                      0                       # Number of TLB faults due to prefetch
system.cpu.itb.domain_faults                        0                       # Number of TLB faults due to domain restrictions
system.cpu.itb.perms_faults                         0                       # Number of TLB faults due to permissions restrictions
system.cpu.itb.read_accesses                        0                       # DTB read accesses
system.cpu.itb.write_accesses                       0                       # DTB write accesses
system.cpu.itb.inst_accesses                        0                       # ITB inst accesses
system.cpu.itb.hits                                 0                       # DTB hits
system.cpu.itb.misses                               0                       # DTB misses
system.cpu.itb.accesses                             0                       # DTB accesses
system.cpu.workload.numSyscalls                   239                       # Number of system calls
system.cpu.pwrStateResidencyTicks::ON    111141730500                       # Cumulative time (in ticks) in various power states
system.cpu.numCycles                        222283461                       # number of cpu cycles simulated
system.cpu.numWorkItemsStarted                      0                       # number of work items this cpu started
system.cpu.numWorkItemsCompleted                    0                       # number of work items this cpu completed
system.cpu.committedInsts                    43681711                       # Number of instructions committed
system.cpu.committedOps                      46438296                       # Number of ops (including micro ops) committed
system.cpu.num_int_alu_accesses              36551152                       # Number of integer alu accesses
system.cpu.num_fp_alu_accesses                     16                       # Number of float alu accesses
system.cpu.num_vec_alu_accesses                     0                       # Number of vector alu accesses
system.cpu.num_func_calls                      479840                       # number of times a function call or return occured
system.cpu.num_conditional_control_insts      9756863                       # number of instructions that are conditional controls
system.cpu.num_int_insts                     36551152                       # number of integer instructions
system.cpu.num_fp_insts                            16                       # number of float instructions
system.cpu.num_vec_insts                            0                       # number of vector instructions
system.cpu.num_int_register_reads            62405820                       # number of times the integer registers were read
system.cpu.num_int_register_writes           21331323                       # number of times the integer registers were written
system.cpu.num_fp_register_reads                   16                       # number of times the floating registers were read
system.cpu.num_fp_register_writes                   0                       # number of times the floating registers were written
system.cpu.num_vec_register_reads                   0                       # number of times the vector registers were read
system.cpu.num_vec_register_writes                  0                       # number of times the vector registers were written
system.cpu.num_cc_register_reads            167328399                       # number of times the CC registers were read
system.cpu.num_cc_register_writes            30215580                       # number of times the CC registers were written
system.cpu.num_mem_refs                      14199997                       # number of memory refs
system.cpu.num_load_insts                     9180679                       # Number of load instructions
system.cpu.num_store_insts                    5019318                       # Number of store instructions
system.cpu.num_idle_cycles                          0                       # Number of idle cycles
system.cpu.num_busy_cycles                  222283461                       # Number of busy cycles
system.cpu.not_idle_fraction                        1                       # Percentage of non-idle cycles
system.cpu.idle_fraction                            0                       # Percentage of idle cycles
system.cpu.Branches                          10612420                       # Number of branches fetched
system.cpu.op_class::No_OpClass                     0      0.00%      0.00% # Class of executed instruction
system.cpu.op_class::IntAlu                  32367985     69.48%     69.48% # Class of executed instruction
system.cpu.op_class::IntMult                    19468      0.04%     69.52% # Class of executed instruction
system.cpu.op_class::IntDiv                         0      0.00%     69.52% # Class of executed instruction
system.cpu.op_class::FloatAdd                       0      0.00%     69.52% # Class of executed instruction
system.cpu.op_class::FloatCmp                       0      0.00%     69.52% # Class of executed instruction
system.cpu.op_class::FloatCvt                       0      0.00%     69.52% # Class of executed instruction
system.cpu.op_class::FloatMult                      0      0.00%     69.52% # Class of executed instruction
system.cpu.op_class::FloatMultAcc                   0      0.00%     69.52% # Class of executed instruction
system.cpu.op_class::FloatDiv                       0      0.00%     69.52% # Class of executed instruction
system.cpu.op_class::FloatMisc                      0      0.00%     69.52% # Class of executed instruction
system.cpu.op_class::FloatSqrt                      0      0.00%     69.52% # Class of executed instruction
system.cpu.op_class::SimdAdd                        0      0.00%     69.52% # Class of executed instruction
system.cpu.op_class::SimdAddAcc                     0      0.00%     69.52% # Class of executed instruction
system.cpu.op_class::SimdAlu                        0      0.00%     69.52% # Class of executed instruction
system.cpu.op_class::SimdCmp                        0      0.00%     69.52% # Class of executed instruction
system.cpu.op_class::SimdCvt                        0      0.00%     69.52% # Class of executed instruction
system.cpu.op_class::SimdMisc                       0      0.00%     69.52% # Class of executed instruction
system.cpu.op_class::SimdMult                       0      0.00%     69.52% # Class of executed instruction
system.cpu.op_class::SimdMultAcc                    0      0.00%     69.52% # Class of executed instruction
system.cpu.op_class::SimdShift                      0      0.00%     69.52% # Class of executed instruction
system.cpu.op_class::SimdShiftAcc                   0      0.00%     69.52% # Class of executed instruction
system.cpu.op_class::SimdSqrt                       0      0.00%     69.52% # Class of executed instruction
system.cpu.op_class::SimdFloatAdd                   0      0.00%     69.52% # Class of executed instruction
system.cpu.op_class::SimdFloatAlu                   0      0.00%     69.52% # Class of executed instruction
system.cpu.op_class::SimdFloatCmp                   0      0.00%     69.52% # Class of executed instruction
system.cpu.op_class::SimdFloatCvt                   0      0.00%     69.52% # Class of executed instruction
system.cpu.op_class::SimdFloatDiv                   0      0.00%     69.52% # Class of executed instruction
system.cpu.op_class::SimdFloatMisc                  0      0.00%     69.52% # Class of executed instruction
system.cpu.op_class::SimdFloatMult                  0      0.00%     69.52% # Class of executed instruction
system.cpu.op_class::SimdFloatMultAcc               0      0.00%     69.52% # Class of executed instruction
system.cpu.op_class::SimdFloatSqrt                  0      0.00%     69.52% # Class of executed instruction
system.cpu.op_class::MemRead                  9180679     19.71%     89.23% # Class of executed instruction
system.cpu.op_class::MemWrite                 5019302     10.77%    100.00% # Class of executed instruction
system.cpu.op_class::FloatMemRead                   0      0.00%    100.00% # Class of executed instruction
system.cpu.op_class::FloatMemWrite                 16      0.00%    100.00% # Class of executed instruction
system.cpu.op_class::IprAccess                      0      0.00%    100.00% # Class of executed instruction
system.cpu.op_class::InstPrefetch                   0      0.00%    100.00% # Class of executed instruction
system.cpu.op_class::total                   46587450                       # Class of executed instruction
system.cpu.dcache.tags.pwrStateResidencyTicks::UNDEFINED 111141730500                       # Cumulative time (in ticks) in various power states
system.cpu.dcache.tags.tagsinuse           511.048349                       # Cycle average of tags in use
system.cpu.dcache.tags.total_refs            14162918                       # Total number of references to valid blocks.
system.cpu.dcache.tags.sampled_refs            440409                       # Sample count of references to valid blocks.
system.cpu.dcache.tags.avg_refs             32.158557                       # Average number of references to valid blocks.
system.cpu.dcache.tags.warmup_cycle            258500                       # Cycle when the warmup percentage was hit.
system.cpu.dcache.tags.occ_blocks::.cpu.data   511.048349                       # Average occupied blocks per requestor
system.cpu.dcache.tags.occ_percent::.cpu.data     0.998141                       # Average percentage of cache occupancy
system.cpu.dcache.tags.occ_percent::total     0.998141                       # Average percentage of cache occupancy
system.cpu.dcache.tags.occ_task_id_blocks::1024          512                       # Occupied blocks per task id
system.cpu.dcache.tags.age_task_id_blocks_1024::0           25                       # Occupied blocks per task id
system.cpu.dcache.tags.age_task_id_blocks_1024::1          329                       # Occupied blocks per task id
system.cpu.dcache.tags.age_task_id_blocks_1024::2           79                       # Occupied blocks per task id
system.cpu.dcache.tags.age_task_id_blocks_1024::3           22                       # Occupied blocks per task id
system.cpu.dcache.tags.age_task_id_blocks_1024::4           57                       # Occupied blocks per task id
system.cpu.dcache.tags.occ_task_id_percent::1024            1                       # Percentage of cache occupancy per task id
system.cpu.dcache.tags.tag_accesses         113743753                       # Number of tag accesses
system.cpu.dcache.tags.data_accesses        113743753                       # Number of data accesses
system.cpu.dcache.pwrStateResidencyTicks::UNDEFINED 111141730500                       # Cumulative time (in ticks) in various power states
system.cpu.dcache.ReadReq_hits::.cpu.data      8677119                       # number of ReadReq hits
system.cpu.dcache.ReadReq_hits::total         8677119                       # number of ReadReq hits
system.cpu.dcache.WriteReq_hits::.cpu.data      4854930                       # number of WriteReq hits
system.cpu.dcache.WriteReq_hits::total        4854930                       # number of WriteReq hits
system.cpu.dcache.LoadLockedReq_hits::.cpu.data        95230                       # number of LoadLockedReq hits
system.cpu.dcache.LoadLockedReq_hits::total        95230                       # number of LoadLockedReq hits
system.cpu.dcache.StoreCondReq_hits::.cpu.data        95230                       # number of StoreCondReq hits
system.cpu.dcache.StoreCondReq_hits::total        95230                       # number of StoreCondReq hits
system.cpu.dcache.demand_hits::.cpu.data     13532049                       # number of demand (read+write) hits
system.cpu.dcache.demand_hits::total         13532049                       # number of demand (read+write) hits
system.cpu.dcache.overall_hits::.cpu.data     13532049                       # number of overall hits
system.cpu.dcache.overall_hits::total        13532049                       # number of overall hits
system.cpu.dcache.ReadReq_misses::.cpu.data       432940                       # number of ReadReq misses
system.cpu.dcache.ReadReq_misses::total        432940                       # number of ReadReq misses
system.cpu.dcache.WriteReq_misses::.cpu.data         7469                       # number of WriteReq misses
system.cpu.dcache.WriteReq_misses::total         7469                       # number of WriteReq misses
system.cpu.dcache.demand_misses::.cpu.data       440409                       # number of demand (read+write) misses
system.cpu.dcache.demand_misses::total         440409                       # number of demand (read+write) misses
system.cpu.dcache.overall_misses::.cpu.data       440409                       # number of overall misses
system.cpu.dcache.overall_misses::total        440409                       # number of overall misses
system.cpu.dcache.ReadReq_miss_latency::.cpu.data  28509670500                       # number of ReadReq miss cycles
system.cpu.dcache.ReadReq_miss_latency::total  28509670500                       # number of ReadReq miss cycles
system.cpu.dcache.WriteReq_miss_latency::.cpu.data    832985500                       # number of WriteReq miss cycles
system.cpu.dcache.WriteReq_miss_latency::total    832985500                       # number of WriteReq miss cycles
system.cpu.dcache.demand_miss_latency::.cpu.data  29342656000                       # number of demand (read+write) miss cycles
system.cpu.dcache.demand_miss_latency::total  29342656000                       # number of demand (read+write) miss cycles
system.cpu.dcache.overall_miss_latency::.cpu.data  29342656000                       # number of overall miss cycles
system.cpu.dcache.overall_miss_latency::total  29342656000                       # number of overall miss cycles
system.cpu.dcache.ReadReq_accesses::.cpu.data      9110059                       # number of ReadReq accesses(hits+misses)
system.cpu.dcache.ReadReq_accesses::total      9110059                       # number of ReadReq accesses(hits+misses)
system.cpu.dcache.WriteReq_accesses::.cpu.data      4862399                       # number of WriteReq accesses(hits+misses)
system.cpu.dcache.WriteReq_accesses::total      4862399                       # number of WriteReq accesses(hits+misses)
system.cpu.dcache.LoadLockedReq_accesses::.cpu.data        95230                       # number of LoadLockedReq accesses(hits+misses)
system.cpu.dcache.LoadLockedReq_accesses::total        95230                       # number of LoadLockedReq accesses(hits+misses)
system.cpu.dcache.StoreCondReq_accesses::.cpu.data        95230                       # number of StoreCondReq accesses(hits+misses)
system.cpu.dcache.StoreCondReq_accesses::total        95230                       # number of StoreCondReq accesses(hits+misses)
system.cpu.dcache.demand_accesses::.cpu.data     13972458                       # number of demand (read+write) accesses
system.cpu.dcache.demand_accesses::total     13972458                       # number of demand (read+write) accesses
system.cpu.dcache.overall_accesses::.cpu.data     13972458                       # number of overall (read+write) accesses
system.cpu.dcache.overall_accesses::total     13972458                       # number of overall (read+write) accesses
system.cpu.dcache.ReadReq_miss_rate::.cpu.data     0.047523                       # miss rate for ReadReq accesses
system.cpu.dcache.ReadReq_miss_rate::total     0.047523                       # miss rate for ReadReq accesses
system.cpu.dcache.WriteReq_miss_rate::.cpu.data     0.001536                       # miss rate for WriteReq accesses
system.cpu.dcache.WriteReq_miss_rate::total     0.001536                       # miss rate for WriteReq accesses
system.cpu.dcache.demand_miss_rate::.cpu.data     0.031520                       # miss rate for demand accesses
system.cpu.dcache.demand_miss_rate::total     0.031520                       # miss rate for demand accesses
system.cpu.dcache.overall_miss_rate::.cpu.data     0.031520                       # miss rate for overall accesses
system.cpu.dcache.overall_miss_rate::total     0.031520                       # miss rate for overall accesses
system.cpu.dcache.ReadReq_avg_miss_latency::.cpu.data 65851.320044                       # average ReadReq miss latency
system.cpu.dcache.ReadReq_avg_miss_latency::total 65851.320044                       # average ReadReq miss latency
system.cpu.dcache.WriteReq_avg_miss_latency::.cpu.data 111525.706253                       # average WriteReq miss latency
system.cpu.dcache.WriteReq_avg_miss_latency::total 111525.706253                       # average WriteReq miss latency
system.cpu.dcache.demand_avg_miss_latency::.cpu.data 66625.922722                       # average overall miss latency
system.cpu.dcache.demand_avg_miss_latency::total 66625.922722                       # average overall miss latency
system.cpu.dcache.overall_avg_miss_latency::.cpu.data 66625.922722                       # average overall miss latency
system.cpu.dcache.overall_avg_miss_latency::total 66625.922722                       # average overall miss latency
system.cpu.dcache.blocked_cycles::no_mshrs            0                       # number of cycles access was blocked
system.cpu.dcache.blocked_cycles::no_targets            0                       # number of cycles access was blocked
system.cpu.dcache.blocked::no_mshrs                 0                       # number of cycles access was blocked
system.cpu.dcache.blocked::no_targets               0                       # number of cycles access was blocked
system.cpu.dcache.avg_blocked_cycles::no_mshrs          nan                       # average number of cycles each access was blocked
system.cpu.dcache.avg_blocked_cycles::no_targets          nan                       # average number of cycles each access was blocked
system.cpu.dcache.writebacks::.writebacks        64799                       # number of writebacks
system.cpu.dcache.writebacks::total             64799                       # number of writebacks
system.cpu.dcache.ReadReq_mshr_misses::.cpu.data       432940                       # number of ReadReq MSHR misses
system.cpu.dcache.ReadReq_mshr_misses::total       432940                       # number of ReadReq MSHR misses
system.cpu.dcache.WriteReq_mshr_misses::.cpu.data         7469                       # number of WriteReq MSHR misses
system.cpu.dcache.WriteReq_mshr_misses::total         7469                       # number of WriteReq MSHR misses
system.cpu.dcache.demand_mshr_misses::.cpu.data       440409                       # number of demand (read+write) MSHR misses
system.cpu.dcache.demand_mshr_misses::total       440409                       # number of demand (read+write) MSHR misses
system.cpu.dcache.overall_mshr_misses::.cpu.data       440409                       # number of overall MSHR misses
system.cpu.dcache.overall_mshr_misses::total       440409                       # number of overall MSHR misses
system.cpu.dcache.ReadReq_mshr_miss_latency::.cpu.data  28076730500                       # number of ReadReq MSHR miss cycles
system.cpu.dcache.ReadReq_mshr_miss_latency::total  28076730500                       # number of ReadReq MSHR miss cycles
system.cpu.dcache.WriteReq_mshr_miss_latency::.cpu.data    825516500                       # number of WriteReq MSHR miss cycles
system.cpu.dcache.WriteReq_mshr_miss_latency::total    825516500                       # number of WriteReq MSHR miss cycles
system.cpu.dcache.demand_mshr_miss_latency::.cpu.data  28902247000                       # number of demand (read+write) MSHR miss cycles
system.cpu.dcache.demand_mshr_miss_latency::total  28902247000                       # number of demand (read+write) MSHR miss cycles
system.cpu.dcache.overall_mshr_miss_latency::.cpu.data  28902247000                       # number of overall MSHR miss cycles
system.cpu.dcache.overall_mshr_miss_latency::total  28902247000                       # number of overall MSHR miss cycles
system.cpu.dcache.ReadReq_mshr_miss_rate::.cpu.data     0.047523                       # mshr miss rate for ReadReq accesses
system.cpu.dcache.ReadReq_mshr_miss_rate::total     0.047523                       # mshr miss rate for ReadReq accesses
system.cpu.dcache.WriteReq_mshr_miss_rate::.cpu.data     0.001536                       # mshr miss rate for WriteReq accesses
system.cpu.dcache.WriteReq_mshr_miss_rate::total     0.001536                       # mshr miss rate for WriteReq accesses
system.cpu.dcache.demand_mshr_miss_rate::.cpu.data     0.031520                       # mshr miss rate for demand accesses
system.cpu.dcache.demand_mshr_miss_rate::total     0.031520                       # mshr miss rate for demand accesses
system.cpu.dcache.overall_mshr_miss_rate::.cpu.data     0.031520                       # mshr miss rate for overall accesses
system.cpu.dcache.overall_mshr_miss_rate::total     0.031520                       # mshr miss rate for overall accesses
system.cpu.dcache.ReadReq_avg_mshr_miss_latency::.cpu.data 64851.320044                       # average ReadReq mshr miss latency
system.cpu.dcache.ReadReq_avg_mshr_miss_latency::total 64851.320044                       # average ReadReq mshr miss latency
system.cpu.dcache.WriteReq_avg_mshr_miss_latency::.cpu.data 110525.706253                       # average WriteReq mshr miss latency
system.cpu.dcache.WriteReq_avg_mshr_miss_latency::total 110525.706253                       # average WriteReq mshr miss latency
system.cpu.dcache.demand_avg_mshr_miss_latency::.cpu.data 65625.922722                       # average overall mshr miss latency
system.cpu.dcache.demand_avg_mshr_miss_latency::total 65625.922722                       # average overall mshr miss latency
system.cpu.dcache.overall_avg_mshr_miss_latency::.cpu.data 65625.922722                       # average overall mshr miss latency
system.cpu.dcache.overall_avg_mshr_miss_latency::total 65625.922722                       # average overall mshr miss latency
system.cpu.dcache.replacements                 439897                       # number of replacements
system.cpu.icache.tags.pwrStateResidencyTicks::UNDEFINED 111141730500                       # Cumulative time (in ticks) in various power states
system.cpu.icache.tags.tagsinuse           127.975445                       # Cycle average of tags in use
system.cpu.icache.tags.total_refs            43814015                       # Total number of references to valid blocks.
system.cpu.icache.tags.sampled_refs           1978267                       # Sample count of references to valid blocks.
system.cpu.icache.tags.avg_refs             22.147675                       # Average number of references to valid blocks.
system.cpu.icache.tags.warmup_cycle             87500                       # Cycle when the warmup percentage was hit.
system.cpu.icache.tags.occ_blocks::.cpu.inst   127.975445                       # Average occupied blocks per requestor
system.cpu.icache.tags.occ_percent::.cpu.inst     0.999808                       # Average percentage of cache occupancy
system.cpu.icache.tags.occ_percent::total     0.999808                       # Average percentage of cache occupancy
system.cpu.icache.tags.occ_task_id_blocks::1024          128                       # Occupied blocks per task id
system.cpu.icache.tags.age_task_id_blocks_1024::0           57                       # Occupied blocks per task id
system.cpu.icache.tags.age_task_id_blocks_1024::1           59                       # Occupied blocks per task id
system.cpu.icache.tags.age_task_id_blocks_1024::3            1                       # Occupied blocks per task id
system.cpu.icache.tags.age_task_id_blocks_1024::4           11                       # Occupied blocks per task id
system.cpu.icache.tags.occ_task_id_percent::1024            1                       # Percentage of cache occupancy per task id
system.cpu.icache.tags.tag_accesses          45792282                       # Number of tag accesses
system.cpu.icache.tags.data_accesses         45792282                       # Number of data accesses
system.cpu.icache.pwrStateResidencyTicks::UNDEFINED 111141730500                       # Cumulative time (in ticks) in various power states
system.cpu.icache.ReadReq_hits::.cpu.inst     41835748                       # number of ReadReq hits
system.cpu.icache.ReadReq_hits::total        41835748                       # number of ReadReq hits
system.cpu.icache.demand_hits::.cpu.inst     41835748                       # number of demand (read+write) hits
system.cpu.icache.demand_hits::total         41835748                       # number of demand (read+write) hits
system.cpu.icache.overall_hits::.cpu.inst     41835748                       # number of overall hits
system.cpu.icache.overall_hits::total        41835748                       # number of overall hits
system.cpu.icache.ReadReq_misses::.cpu.inst      1978267                       # number of ReadReq misses
system.cpu.icache.ReadReq_misses::total       1978267                       # number of ReadReq misses
system.cpu.icache.demand_misses::.cpu.inst      1978267                       # number of demand (read+write) misses
system.cpu.icache.demand_misses::total        1978267                       # number of demand (read+write) misses
system.cpu.icache.overall_misses::.cpu.inst      1978267                       # number of overall misses
system.cpu.icache.overall_misses::total       1978267                       # number of overall misses
system.cpu.icache.ReadReq_miss_latency::.cpu.inst  26302920500                       # number of ReadReq miss cycles
system.cpu.icache.ReadReq_miss_latency::total  26302920500                       # number of ReadReq miss cycles
system.cpu.icache.demand_miss_latency::.cpu.inst  26302920500                       # number of demand (read+write) miss cycles
system.cpu.icache.demand_miss_latency::total  26302920500                       # number of demand (read+write) miss cycles
system.cpu.icache.overall_miss_latency::.cpu.inst  26302920500                       # number of overall miss cycles
system.cpu.icache.overall_miss_latency::total  26302920500                       # number of overall miss cycles
system.cpu.icache.ReadReq_accesses::.cpu.inst     43814015                       # number of ReadReq accesses(hits+misses)
system.cpu.icache.ReadReq_accesses::total     43814015                       # number of ReadReq accesses(hits+misses)
system.cpu.icache.demand_accesses::.cpu.inst     43814015                       # number of demand (read+write) accesses
system.cpu.icache.demand_accesses::total     43814015                       # number of demand (read+write) accesses
system.cpu.icache.overall_accesses::.cpu.inst     43814015                       # number of overall (read+write) accesses
system.cpu.icache.overall_accesses::total     43814015                       # number of overall (read+write) accesses
system.cpu.icache.ReadReq_miss_rate::.cpu.inst     0.045151                       # miss rate for ReadReq accesses
system.cpu.icache.ReadReq_miss_rate::total     0.045151                       # miss rate for ReadReq accesses
system.cpu.icache.demand_miss_rate::.cpu.inst     0.045151                       # miss rate for demand accesses
system.cpu.icache.demand_miss_rate::total     0.045151                       # miss rate for demand accesses
system.cpu.icache.overall_miss_rate::.cpu.inst     0.045151                       # miss rate for overall accesses
system.cpu.icache.overall_miss_rate::total     0.045151                       # miss rate for overall accesses
[...]
system.l2.ReadCleanReq_accesses::.cpu.inst      1978267                       # number of ReadCleanReq accesses(hits+misses)
system.l2.ReadCleanReq_accesses::total        1978267                       # number of ReadCleanReq accesses(hits+misses)
system.l2.ReadSharedReq_accesses::.cpu.data       432940                       # number of ReadSharedReq accesses(hits+misses)
system.l2.ReadSharedReq_accesses::total        432940                       # number of ReadSharedReq accesses(hits+misses)
system.l2.demand_accesses::.cpu.inst          1978267                       # number of demand (read+write) accesses
system.l2.demand_accesses::.cpu.data           440409                       # number of demand (read+write) accesses
system.l2.demand_accesses::total              2418676                       # number of demand (read+write) accesses
system.l2.overall_accesses::.cpu.inst         1978267                       # number of overall (read+write) accesses
system.l2.overall_accesses::.cpu.data          440409                       # number of overall (read+write) accesses
system.l2.overall_accesses::total             2418676                       # number of overall (read+write) accesses
system.l2.ReadExReq_miss_rate::.cpu.data     0.785380                       # miss rate for ReadExReq accesses
system.l2.ReadExReq_miss_rate::total         0.785380                       # miss rate for ReadExReq accesses
system.l2.ReadCleanReq_miss_rate::.cpu.inst     0.004020                       # miss rate for ReadCleanReq accesses
system.l2.ReadCleanReq_miss_rate::total      0.004020                       # miss rate for ReadCleanReq accesses
system.l2.ReadSharedReq_miss_rate::.cpu.data     0.707474                       # miss rate for ReadSharedReq accesses
system.l2.ReadSharedReq_miss_rate::total     0.707474                       # miss rate for ReadSharedReq accesses
system.l2.demand_miss_rate::.cpu.inst        0.004020                       # miss rate for demand accesses
system.l2.demand_miss_rate::.cpu.data        0.708796                       # miss rate for demand accesses
system.l2.demand_miss_rate::total            0.132350                       # miss rate for demand accesses
system.l2.overall_miss_rate::.cpu.inst       0.004020                       # miss rate for overall accesses
system.l2.overall_miss_rate::.cpu.data       0.708796                       # miss rate for overall accesses
system.l2.overall_miss_rate::total           0.132350                       # miss rate for overall accesses
system.l2.ReadExReq_avg_miss_latency::.cpu.data 135949.795431                       # average ReadExReq miss latency
system.l2.ReadExReq_avg_miss_latency::total 135949.795431                       # average ReadExReq miss latency
system.l2.ReadCleanReq_avg_miss_latency::.cpu.inst 82809.796278                       # average ReadCleanReq miss latency
system.l2.ReadCleanReq_avg_miss_latency::total 82809.796278                       # average ReadCleanReq miss latency
system.l2.ReadSharedReq_avg_miss_latency::.cpu.data 85204.065375                       # average ReadSharedReq miss latency
system.l2.ReadSharedReq_avg_miss_latency::total 85204.065375                       # average ReadSharedReq miss latency
system.l2.demand_avg_miss_latency::.cpu.inst 82809.796278                       # average overall miss latency
system.l2.demand_avg_miss_latency::.cpu.data 86157.661135                       # average overall miss latency
system.l2.demand_avg_miss_latency::total 86074.495801                       # average overall miss latency
system.l2.overall_avg_miss_latency::.cpu.inst 82809.796278                       # average overall miss latency
system.l2.overall_avg_miss_latency::.cpu.data 86157.661135                       # average overall miss latency
system.l2.overall_avg_miss_latency::total 86074.495801                       # average overall miss latency
system.l2.blocked_cycles::no_mshrs                  0                       # number of cycles access was blocked
system.l2.blocked_cycles::no_targets                0                       # number of cycles access was blocked
system.l2.blocked::no_mshrs                         0                       # number of cycles access was blocked
system.l2.blocked::no_targets                       0                       # number of cycles access was blocked
system.l2.avg_blocked_cycles::no_mshrs            nan                       # average number of cycles each access was blocked
system.l2.avg_blocked_cycles::no_targets          nan                       # average number of cycles each access was blocked
system.l2.writebacks::.writebacks               20931                       # number of writebacks
system.l2.writebacks::total                     20931                       # number of writebacks
system.l2.CleanEvict_mshr_misses::.writebacks        23185                       # number of CleanEvict MSHR misses
system.l2.CleanEvict_mshr_misses::total         23185                       # number of CleanEvict MSHR misses
system.l2.ReadExReq_mshr_misses::.cpu.data         5866                       # number of ReadExReq MSHR misses
system.l2.ReadExReq_mshr_misses::total           5866                       # number of ReadExReq MSHR misses
system.l2.ReadCleanReq_mshr_misses::.cpu.inst         7952                       # number of ReadCleanReq MSHR misses
system.l2.ReadCleanReq_mshr_misses::total         7952                       # number of ReadCleanReq MSHR misses
system.l2.ReadSharedReq_mshr_misses::.cpu.data       306294                       # number of ReadSharedReq MSHR misses
system.l2.ReadSharedReq_mshr_misses::total       306294                       # number of ReadSharedReq MSHR misses
system.l2.demand_mshr_misses::.cpu.inst          7952                       # number of demand (read+write) MSHR misses
system.l2.demand_mshr_misses::.cpu.data        312160                       # number of demand (read+write) MSHR misses
system.l2.demand_mshr_misses::total            320112                       # number of demand (read+write) MSHR misses
system.l2.overall_mshr_misses::.cpu.inst         7952                       # number of overall MSHR misses
system.l2.overall_mshr_misses::.cpu.data       312160                       # number of overall MSHR misses
system.l2.overall_mshr_misses::total           320112                       # number of overall MSHR misses
system.l2.ReadExReq_mshr_miss_latency::.cpu.data    738821500                       # number of ReadExReq MSHR miss cycles
system.l2.ReadExReq_mshr_miss_latency::total    738821500                       # number of ReadExReq MSHR miss cycles
system.l2.ReadCleanReq_mshr_miss_latency::.cpu.inst    578983500                       # number of ReadCleanReq MSHR miss cycles
system.l2.ReadCleanReq_mshr_miss_latency::total    578983500                       # number of ReadCleanReq MSHR miss cycles
system.l2.ReadSharedReq_mshr_miss_latency::.cpu.data  23034554000                       # number of ReadSharedReq MSHR miss cycles
system.l2.ReadSharedReq_mshr_miss_latency::total  23034554000                       # number of ReadSharedReq MSHR miss cycles
system.l2.demand_mshr_miss_latency::.cpu.inst    578983500                       # number of demand (read+write) MSHR miss cycles
system.l2.demand_mshr_miss_latency::.cpu.data  23773375500                       # number of demand (read+write) MSHR miss cycles
system.l2.demand_mshr_miss_latency::total  24352359000                       # number of demand (read+write) MSHR miss cycles
system.l2.overall_mshr_miss_latency::.cpu.inst    578983500                       # number of overall MSHR miss cycles
system.l2.overall_mshr_miss_latency::.cpu.data  23773375500                       # number of overall MSHR miss cycles
system.l2.overall_mshr_miss_latency::total  24352359000                       # number of overall MSHR miss cycles
system.l2.CleanEvict_mshr_miss_rate::.writebacks          inf                       # mshr miss rate for CleanEvict accesses
system.l2.CleanEvict_mshr_miss_rate::total          inf                       # mshr miss rate for CleanEvict accesses
system.l2.ReadExReq_mshr_miss_rate::.cpu.data     0.785380                       # mshr miss rate for ReadExReq accesses
system.l2.ReadExReq_mshr_miss_rate::total     0.785380                       # mshr miss rate for ReadExReq accesses
system.l2.ReadCleanReq_mshr_miss_rate::.cpu.inst     0.004020                       # mshr miss rate for ReadCleanReq accesses
system.l2.ReadCleanReq_mshr_miss_rate::total     0.004020                       # mshr miss rate for ReadCleanReq accesses
system.l2.ReadSharedReq_mshr_miss_rate::.cpu.data     0.707474                       # mshr miss rate for ReadSharedReq accesses
system.l2.ReadSharedReq_mshr_miss_rate::total     0.707474                       # mshr miss rate for ReadSharedReq accesses
system.l2.demand_mshr_miss_rate::.cpu.inst     0.004020                       # mshr miss rate for demand accesses
system.l2.demand_mshr_miss_rate::.cpu.data     0.708796                       # mshr miss rate for demand accesses
system.l2.demand_mshr_miss_rate::total       0.132350                       # mshr miss rate for demand accesses
system.l2.overall_mshr_miss_rate::.cpu.inst     0.004020                       # mshr miss rate for overall accesses
system.l2.overall_mshr_miss_rate::.cpu.data     0.708796                       # mshr miss rate for overall accesses
system.l2.overall_mshr_miss_rate::total      0.132350                       # mshr miss rate for overall accesses
system.l2.ReadExReq_avg_mshr_miss_latency::.cpu.data 125949.795431                       # average ReadExReq mshr miss latency
system.l2.ReadExReq_avg_mshr_miss_latency::total 125949.795431                       # average ReadExReq mshr miss latency
system.l2.ReadCleanReq_avg_mshr_miss_latency::.cpu.inst 72809.796278                       # average ReadCleanReq mshr miss latency
system.l2.ReadCleanReq_avg_mshr_miss_latency::total 72809.796278                       # average ReadCleanReq mshr miss latency
system.l2.ReadSharedReq_avg_mshr_miss_latency::.cpu.data 75204.065375                       # average ReadSharedReq mshr miss latency
system.l2.ReadSharedReq_avg_mshr_miss_latency::total 75204.065375                       # average ReadSharedReq mshr miss latency
system.l2.demand_avg_mshr_miss_latency::.cpu.inst 72809.796278                       # average overall mshr miss latency
system.l2.demand_avg_mshr_miss_latency::.cpu.data 76157.661135                       # average overall mshr miss latency
system.l2.demand_avg_mshr_miss_latency::total 76074.495801                       # average overall mshr miss latency
system.l2.overall_avg_mshr_miss_latency::.cpu.inst 72809.796278                       # average overall mshr miss latency
system.l2.overall_avg_mshr_miss_latency::.cpu.data 76157.661135                       # average overall mshr miss latency
system.l2.overall_avg_mshr_miss_latency::total 76074.495801                       # average overall mshr miss latency
system.l2.replacements                         346794                       # number of replacements
system.membus.snoop_filter.tot_requests        638976                       # Total number of requests made to the snoop filter.
system.membus.snoop_filter.hit_single_requests       318866                       # Number of requests hitting in the snoop filter with a single holder of the requested data.
system.membus.snoop_filter.hit_multi_requests            0                       # Number of requests hitting in the snoop filter with multiple (>1) holders of the requested data.
system.membus.snoop_filter.tot_snoops               0                       # Total number of snoops made to the snoop filter.
system.membus.snoop_filter.hit_single_snoops            0                       # Number of snoops hitting in the snoop filter with a single holder of the requested data.
system.membus.snoop_filter.hit_multi_snoops            0                       # Number of snoops hitting in the snoop filter with multiple (>1) holders of the requested data.
system.membus.pwrStateResidencyTicks::UNDEFINED 111141730500                       # Cumulative time (in ticks) in various power states
system.membus.trans_dist::ReadResp             314246                       # Transaction distribution
system.membus.trans_dist::WritebackDirty        20931                       # Transaction distribution
system.membus.trans_dist::CleanEvict           297933                       # Transaction distribution
system.membus.trans_dist::ReadExReq              5866                       # Transaction distribution
system.membus.trans_dist::ReadExResp             5866                       # Transaction distribution
system.membus.trans_dist::ReadSharedReq        314246                       # Transaction distribution
system.membus.pkt_count_system.l2.mem_side::system.mem_ctrls.port       959088                       # Packet count per connected master and slave (bytes)
system.membus.pkt_count::total                 959088                       # Packet count per connected master and slave (bytes)
system.membus.pkt_size_system.l2.mem_side::system.mem_ctrls.port      5456688                       # Cumulative packet size per connected master and slave (bytes)
system.membus.pkt_size::total                 5456688                       # Cumulative packet size per connected master and slave (bytes)
system.membus.snoops                                0                       # Total snoops (count)
system.membus.snoopTraffic                          0                       # Total snoop traffic (bytes)
system.membus.snoop_fanout::samples            320112                       # Request fanout histogram
system.membus.snoop_fanout::mean                    0                       # Request fanout histogram
system.membus.snoop_fanout::stdev                   0                       # Request fanout histogram
system.membus.snoop_fanout::underflows              0      0.00%      0.00% # Request fanout histogram
system.membus.snoop_fanout::0                  320112    100.00%    100.00% # Request fanout histogram
system.membus.snoop_fanout::1                       0      0.00%    100.00% # Request fanout histogram
system.membus.snoop_fanout::overflows               0      0.00%    100.00% # Request fanout histogram
system.membus.snoop_fanout::min_value               0                       # Request fanout histogram
system.membus.snoop_fanout::max_value               0                       # Request fanout histogram
system.membus.snoop_fanout::total              320112                       # Request fanout histogram
system.membus.reqLayer0.occupancy           660982500                       # Layer occupancy (ticks)
system.membus.reqLayer0.utilization               0.6                       # Layer utilization (%)
system.membus.respLayer1.occupancy          728307000                       # Layer occupancy (ticks)
system.membus.respLayer1.utilization              0.7                       # Layer utilization (%)
system.tol2bus.snoop_filter.tot_requests      4836712                       # Total number of requests made to the snoop filter.
system.tol2bus.snoop_filter.hit_single_requests      2418037                       # Number of requests hitting in the snoop filter with a single holder of the requested data.
system.tol2bus.snoop_filter.hit_multi_requests        10445                       # Number of requests hitting in the snoop filter with multiple (>1) holders of the requested data.
system.tol2bus.snoop_filter.tot_snoops          51115                       # Total number of snoops made to the snoop filter.
system.tol2bus.snoop_filter.hit_single_snoops        51115                       # Number of snoops hitting in the snoop filter with a single holder of the requested data.
system.tol2bus.snoop_filter.hit_multi_snoops            0                       # Number of snoops hitting in the snoop filter with multiple (>1) holders of the requested data.
system.tol2bus.pwrStateResidencyTicks::UNDEFINED 111141730500                       # Cumulative time (in ticks) in various power states
system.tol2bus.trans_dist::ReadResp           2411207                       # Transaction distribution
system.tol2bus.trans_dist::WritebackDirty        85730                       # Transaction distribution
system.tol2bus.trans_dist::WritebackClean      1978139                       # Transaction distribution
system.tol2bus.trans_dist::CleanEvict          700961                       # Transaction distribution
system.tol2bus.trans_dist::ReadExReq             7469                       # Transaction distribution
system.tol2bus.trans_dist::ReadExResp            7469                       # Transaction distribution
system.tol2bus.trans_dist::ReadCleanReq       1978267                       # Transaction distribution
system.tol2bus.trans_dist::ReadSharedReq       432940                       # Transaction distribution
system.tol2bus.pkt_count_system.cpu.icache.mem_side::system.l2.cpu_side      5934673                       # Packet count per connected master and slave (bytes)
system.tol2bus.pkt_count_system.cpu.dcache.mem_side::system.l2.cpu_side      1320715                       # Packet count per connected master and slave (bytes)
system.tol2bus.pkt_count::total               7255388                       # Packet count per connected master and slave (bytes)
system.tol2bus.pkt_size_system.cpu.icache.mem_side::system.l2.cpu_side     63302496                       # Cumulative packet size per connected master and slave (bytes)
system.tol2bus.pkt_size_system.cpu.dcache.mem_side::system.l2.cpu_side      8083328                       # Cumulative packet size per connected master and slave (bytes)
system.tol2bus.pkt_size::total               71385824                       # Cumulative packet size per connected master and slave (bytes)
system.tol2bus.snoops                          346794                       # Total snoops (count)
system.tol2bus.snoopTraffic                    334896                       # Total snoop traffic (bytes)
system.tol2bus.snoop_fanout::samples          2765470                       # Request fanout histogram
system.tol2bus.snoop_fanout::mean            0.022261                       # Request fanout histogram
system.tol2bus.snoop_fanout::stdev           0.147530                       # Request fanout histogram
system.tol2bus.snoop_fanout::underflows             0      0.00%      0.00% # Request fanout histogram
system.tol2bus.snoop_fanout::0                2703909     97.77%     97.77% # Request fanout histogram
system.tol2bus.snoop_fanout::1                  61561      2.23%    100.00% # Request fanout histogram
system.tol2bus.snoop_fanout::2                      0      0.00%    100.00% # Request fanout histogram
system.tol2bus.snoop_fanout::overflows              0      0.00%    100.00% # Request fanout histogram
system.tol2bus.snoop_fanout::min_value              0                       # Request fanout histogram
system.tol2bus.snoop_fanout::max_value              1                       # Request fanout histogram
system.tol2bus.snoop_fanout::total            2765470                       # Request fanout histogram
system.tol2bus.reqLayer0.occupancy         3439825000                       # Layer occupancy (ticks)
system.tol2bus.reqLayer0.utilization              3.1                       # Layer utilization (%)
system.tol2bus.respLayer0.occupancy        1978267000                       # Layer occupancy (ticks)
system.tol2bus.respLayer0.utilization             1.8                       # Layer utilization (%)
system.tol2bus.respLayer1.occupancy         440409000                       # Layer occupancy (ticks)
system.tol2bus.respLayer1.utilization             0.4                       # Layer utilization (%)

---------- End Simulation Statistics   ----------
