gem5 Simulator System.  http://gem5.org
gem5 is copyrighted software; use the --copyright option for details.

gem5 compiled Nov 18 2018 19:27:57
gem5 started Nov 18 2018 19:28:59
gem5 executing on Chinmay-Laptop, pid 2373
command line: /home/chinmaysj96/Desktop/project/gem52/gem5/build/ARM/gem5.opt -d /home/chinmaysj96/Desktop/project/gem52/gem5/p3qsort-lru /home/chinmaysj96/Desktop/project/gem52/gem5/configs/example/se.py --cpu-type=TimingSimpleCPU --caches --l1d_size=1kB --l1d_assoc=4 --cacheline_size=32 --l2cache --num-l2caches=1 --l2_size=16kB --l2_assoc=16 --l1i_size=2kB --l1i_assoc=1 -c ./benchmarks/qsort/qsort_small -o ./benchmarks/qsort/input_small.dat

Global frequency set at 1000000000000 ticks per second
base madhe ahe
replacement data 0x55b870c57200
replacement data type 0x55b871105b00
blk-set is 0
replacement data 0x55b870c571c8
replacement data type 0x55b871105b00
blk-set is 0
replacement data 0x55b870c572b8
replacement data type 0x55b871105b00
blk-set is 0
replacement data 0x55b870c572c0
replacement data type 0x55b871105b00
blk-set is 0
replacement data 0x55b870c572c8
replacement data type 0x55b871105b00
blk-set is 1
replacement data 0x55b870c572d0
replacement data type 0x55b871105b00
blk-set is 1
replacement data 0x55b870c572d8
replacement data type 0x55b871105b00
blk-set is 1
replacement data 0x55b870c575b0
replacement data type 0x55b871105b00
blk-set is 1
replacement data 0x55b870c572e0
replacement data type 0x55b871105b00
blk-set is 2
replacement data 0x55b870c572e8
replacement data type 0x55b871105b00
blk-set is 2
replacement data 0x55b870c572f0
replacement data type 0x55b871105b00
blk-set is 2
replacement data 0x55b870c575c8
replacement data type 0x55b871105b00
blk-set is 2
replacement data 0x55b870c575d0
replacement data type 0x55b871105b00
blk-set is 3
replacement data 0x55b870c575e0
replacement data type 0x55b871105b00
blk-set is 3
replacement data 0x55b870c572f8
replacement data type 0x55b871105b00
blk-set is 3
replacement data 0x55b870c57300
replacement data type 0x55b871105b00
blk-set is 3
replacement data 0x55b870c57308
replacement data type 0x55b871105b00
blk-set is 4
replacement data 0x55b870c57310
replacement data type 0x55b871105b00
blk-set is 4
replacement data 0x55b870c57318
replacement data type 0x55b871105b00
blk-set is 4
replacement data 0x55b870c57320
replacement data type 0x55b871105b00
blk-set is 4
replacement data 0x55b870c57328
replacement data type 0x55b871105b00
blk-set is 5
replacement data 0x55b870c57330
replacement data type 0x55b871105b00
blk-set is 5
replacement data 0x55b870c57338
replacement data type 0x55b871105b00
blk-set is 5
replacement data 0x55b870c57340
replacement data type 0x55b871105b00
blk-set is 5
replacement data 0x55b870c57348
replacement data type 0x55b871105b00
blk-set is 6
replacement data 0x55b870c57350
replacement data type 0x55b871105b00
blk-set is 6
replacement data 0x55b870c57358
replacement data type 0x55b871105b00
blk-set is 6
replacement data 0x55b870c57360
replacement data type 0x55b871105b00
blk-set is 6
replacement data 0x55b870c57368
replacement data type 0x55b871105b00
blk-set is 7
replacement data 0x55b870c57370
replacement data type 0x55b871105b00
blk-set is 7
replacement data 0x55b870c57378
replacement data type 0x55b871105b00
blk-set is 7
replacement data 0x55b870c57380
replacement data type 0x55b871105b00
blk-set is 7
base madhe ahe
replacement data 0x55b870c572b0
replacement data type 0x55b871105bc0
blk-set is 0
replacement data 0x55b870c573a0
replacement data type 0x55b871105bc0
blk-set is 1
replacement data 0x55b870c573b0
replacement data type 0x55b871105bc0
blk-set is 2
replacement data 0x55b870c573c0
replacement data type 0x55b871105bc0
blk-set is 3
replacement data 0x55b870c573d0
replacement data type 0x55b871105bc0
blk-set is 4
replacement data 0x55b870c573e0
replacement data type 0x55b871105bc0
blk-set is 5
replacement data 0x55b870c573f0
replacement data type 0x55b871105bc0
blk-set is 6
replacement data 0x55b870c57400
replacement data type 0x55b871105bc0
blk-set is 7
replacement data 0x55b870c57410
replacement data type 0x55b871105bc0
blk-set is 8
replacement data 0x55b870c57420
replacement data type 0x55b871105bc0
blk-set is 9
replacement data 0x55b870c57430
replacement data type 0x55b871105bc0
blk-set is 10
replacement data 0x55b870c57440
replacement data type 0x55b871105bc0
blk-set is 11
replacement data 0x55b870c57450
replacement data type 0x55b871105bc0
blk-set is 12
replacement data 0x55b870c57460
replacement data type 0x55b871105bc0
blk-set is 13
replacement data 0x55b870c57470
replacement data type 0x55b871105bc0
blk-set is 14
replacement data 0x55b870c57480
replacement data type 0x55b871105bc0
blk-set is 15
replacement data 0x55b870c57490
replacement data type 0x55b871105bc0
blk-set is 16
replacement data 0x55b870c574a0
replacement data type 0x55b871105bc0
blk-set is 17
replacement data 0x55b870c574b0
replacement data type 0x55b871105bc0
blk-set is 18
replacement data 0x55b870c574c0
replacement data type 0x55b871105bc0
blk-set is 19
replacement data 0x55b870c574d0
replacement data type 0x55b871105bc0
blk-set is 20
replacement data 0x55b870c574e0
replacement data type 0x55b871105bc0
blk-set is 21
replacement data 0x55b870c574f0
replacement data type 0x55b871105bc0
blk-set is 22
replacement data 0x55b870c57500
replacement data type 0x55b871105bc0
blk-set is 23
replacement data 0x55b870c57510
replacement data type 0x55b871105bc0
blk-set is 24
replacement data 0x55b870c57520
replacement data type 0x55b871105bc0
blk-set is 25
replacement data 0x55b870c57530
replacement data type 0x55b871105bc0
blk-set is 26
replacement data 0x55b870c57540
replacement data type 0x55b871105bc0
blk-set is 27
replacement data 0x55b870c57550
replacement data type 0x55b871105bc0
blk-set is 28
replacement data 0x55b870c57560
replacement data type 0x55b871105bc0
blk-set is 29
replacement data 0x55b870c57570
replacement data type 0x55b871105bc0
blk-set is 30
replacement data 0x55b870c57580
replacement data type 0x55b871105bc0
blk-set is 31
replacement data 0x55b870c57590
replacement data type 0x55b871105bc0
blk-set is 32
replacement data 0x55b870c575a0
replacement data type 0x55b871105bc0
blk-set is 33
replacement data 0x55b870c57918
replacement data type 0x55b871105bc0
blk-set is 34
replacement data 0x55b870c57928
replacement data type 0x55b871105bc0
blk-set is 35
replacement data 0x55b870c57938
replacement data type 0x55b871105bc0
blk-set is 36
replacement data 0x55b870c57948
replacement data type 0x55b871105bc0
blk-set is 37
replacement data 0x55b870c57958
replacement data type 0x55b871105bc0
blk-set is 38
replacement data 0x55b870c57968
replacement data type 0x55b871105bc0
blk-set is 39
replacement data 0x55b870c57978
replacement data type 0x55b871105bc0
blk-set is 40
replacement data 0x55b870c57988
replacement data type 0x55b871105bc0
blk-set is 41
replacement data 0x55b870c57998
replacement data type 0x55b871105bc0
blk-set is 42
replacement data 0x55b870c579a8
replacement data type 0x55b871105bc0
blk-set is 43
replacement data 0x55b870c579b8
replacement data type 0x55b871105bc0
blk-set is 44
replacement data 0x55b870c579c8
replacement data type 0x55b871105bc0
blk-set is 45
replacement data 0x55b870c579d8
replacement data type 0x55b871105bc0
blk-set is 46
replacement data 0x55b870c579e8
replacement data type 0x55b871105bc0
blk-set is 47
replacement data 0x55b870c579f8
replacement data type 0x55b871105bc0
blk-set is 48
replacement data 0x55b870c57a08
replacement data type 0x55b871105bc0
blk-set is 49
replacement data 0x55b870c57a18
replacement data type 0x55b871105bc0
blk-set is 50
replacement data 0x55b870c57a28
replacement data type 0x55b871105bc0
blk-set is 51
replacement data 0x55b870c57a38
replacement data type 0x55b871105bc0
blk-set is 52
replacement data 0x55b870c57a48
replacement data type 0x55b871105bc0
blk-set is 53
replacement data 0x55b870c57a58
replacement data type 0x55b871105bc0
blk-set is 54
replacement data 0x55b870c57a68
replacement data type 0x55b871105bc0
blk-set is 55
replacement data 0x55b870c57a78
replacement data type 0x55b871105bc0
blk-set is 56
replacement data 0x55b870c57a88
replacement data type 0x55b871105bc0
blk-set is 57
replacement data 0x55b870c57a98
replacement data type 0x55b871105bc0
blk-set is 58
replacement data 0x55b870c57aa8
replacement data type 0x55b871105bc0
blk-set is 59
replacement data 0x55b870c57ab8
replacement data type 0x55b871105bc0
blk-set is 60
replacement data 0x55b870c57ac8
replacement data type 0x55b871105bc0
blk-set is 61
replacement data 0x55b870c57ad8
replacement data type 0x55b871105bc0
blk-set is 62
replacement data 0x55b870c57ae8
replacement data type 0x55b871105bc0
blk-set is 63
base madhe ahe
replacement data 0x55b870c57388
replacement data type 0x55b871105b40
blk-set is 0
replacement data 0x55b870c57390
replacement data type 0x55b871105b40
blk-set is 0
replacement data 0x55b870c57b00
replacement data type 0x55b871105b40
blk-set is 0
replacement data 0x55b870c57b08
replacement data type 0x55b871105b40
blk-set is 0
replacement data 0x55b870c57b10
replacement data type 0x55b871105b40
blk-set is 0
replacement data 0x55b870c57b18
replacement data type 0x55b871105b40
blk-set is 0
replacement data 0x55b870c57b20
replacement data type 0x55b871105b40
blk-set is 0
replacement data 0x55b870c57b28
replacement data type 0x55b871105b40
blk-set is 0
replacement data 0x55b870c57b30
replacement data type 0x55b871105b40
blk-set is 0
replacement data 0x55b870c57b38
replacement data type 0x55b871105b40
blk-set is 0
replacement data 0x55b870c57b40
replacement data type 0x55b871105b40
blk-set is 0
replacement data 0x55b870c57b48
replacement data type 0x55b871105b40
blk-set is 0
replacement data 0x55b870c57b50
replacement data type 0x55b871105b40
blk-set is 0
replacement data 0x55b870c57b58
replacement data type 0x55b871105b40
blk-set is 0
replacement data 0x55b870c57b60
replacement data type 0x55b871105b40
blk-set is 0
replacement data 0x55b870c57b68
replacement data type 0x55b871105b40
blk-set is 0
replacement data 0x55b870c57b70
replacement data type 0x55b871105b40
blk-set is 1
replacement data 0x55b870c57b78
replacement data type 0x55b871105b40
blk-set is 1
replacement data 0x55b870c57b80
replacement data type 0x55b871105b40
blk-set is 1
replacement data 0x55b870c57b88
replacement data type 0x55b871105b40
blk-set is 1
replacement data 0x55b870c57b90
replacement data type 0x55b871105b40
blk-set is 1
replacement data 0x55b870c57b98
replacement data type 0x55b871105b40
blk-set is 1
replacement data 0x55b870c57ba0
replacement data type 0x55b871105b40
blk-set is 1
replacement data 0x55b870c57ba8
replacement data type 0x55b871105b40
blk-set is 1
replacement data 0x55b870c57bb0
replacement data type 0x55b871105b40
blk-set is 1
replacement data 0x55b870c57bb8
replacement data type 0x55b871105b40
blk-set is 1
replacement data 0x55b870c57bc0
replacement data type 0x55b871105b40
blk-set is 1
replacement data 0x55b870c57bc8
replacement data type 0x55b871105b40
blk-set is 1
replacement data 0x55b870c57bd0
replacement data type 0x55b871105b40
blk-set is 1
replacement data 0x55b870c57bd8
replacement data type 0x55b871105b40
blk-set is 1
replacement data 0x55b870c57be0
replacement data type 0x55b871105b40
blk-set is 1
replacement data 0x55b870c57be8
replacement data type 0x55b871105b40
blk-set is 1
replacement data 0x55b870c57bf0
replacement data type 0x55b871105b40
blk-set is 2
replacement data 0x55b870c57bf8
replacement data type 0x55b871105b40
blk-set is 2
replacement data 0x55b870c57c00
replacement data type 0x55b871105b40
blk-set is 2
replacement data 0x55b870c57c08
replacement data type 0x55b871105b40
blk-set is 2
replacement data 0x55b870c57c10
replacement data type 0x55b871105b40
blk-set is 2
replacement data 0x55b870c57c18
replacement data type 0x55b871105b40
blk-set is 2
replacement data 0x55b870c57c20
replacement data type 0x55b871105b40
blk-set is 2
replacement data 0x55b870c57c28
replacement data type 0x55b871105b40
blk-set is 2
replacement data 0x55b870c57c30
replacement data type 0x55b871105b40
blk-set is 2
replacement data 0x55b870c57c38
replacement data type 0x55b871105b40
blk-set is 2
replacement data 0x55b870c57c40
replacement data type 0x55b871105b40
blk-set is 2
replacement data 0x55b870c57c48
replacement data type 0x55b871105b40
blk-set is 2
replacement data 0x55b870c57c50
replacement data type 0x55b871105b40
blk-set is 2
replacement data 0x55b870c57c58
replacement data type 0x55b871105b40
blk-set is 2
replacement data 0x55b870c57c60
replacement data type 0x55b871105b40
blk-set is 2
replacement data 0x55b870c57c68
replacement data type 0x55b871105b40
blk-set is 2
replacement data 0x55b870c57c70
replacement data type 0x55b871105b40
blk-set is 3
replacement data 0x55b870c57c78
replacement data type 0x55b871105b40
blk-set is 3
replacement data 0x55b870c57c80
replacement data type 0x55b871105b40
blk-set is 3
replacement data 0x55b870c57c88
replacement data type 0x55b871105b40
blk-set is 3
replacement data 0x55b870c57c90
replacement data type 0x55b871105b40
blk-set is 3
replacement data 0x55b870c57c98
replacement data type 0x55b871105b40
blk-set is 3
replacement data 0x55b870c57ca0
replacement data type 0x55b871105b40
blk-set is 3
replacement data 0x55b870c57ca8
replacement data type 0x55b871105b40
blk-set is 3
replacement data 0x55b870c57cb0
replacement data type 0x55b871105b40
blk-set is 3
replacement data 0x55b870c57cb8
replacement data type 0x55b871105b40
blk-set is 3
replacement data 0x55b870c57cc0
replacement data type 0x55b871105b40
blk-set is 3
replacement data 0x55b870c57cc8
replacement data type 0x55b871105b40
blk-set is 3
replacement data 0x55b870c57cd0
replacement data type 0x55b871105b40
blk-set is 3
replacement data 0x55b870c57cd8
replacement data type 0x55b871105b40
blk-set is 3
replacement data 0x55b870c57ce0
replacement data type 0x55b871105b40
blk-set is 3
replacement data 0x55b870c57ce8
replacement data type 0x55b871105b40
blk-set is 3
replacement data 0x55b870c57cf0
replacement data type 0x55b871105b40
blk-set is 4
replacement data 0x55b870c57cf8
replacement data type 0x55b871105b40
blk-set is 4
replacement data 0x55b870c57d00
replacement data type 0x55b871105b40
blk-set is 4
replacement data 0x55b870c57d08
replacement data type 0x55b871105b40
blk-set is 4
replacement data 0x55b870c57d10
replacement data type 0x55b871105b40
blk-set is 4
replacement data 0x55b870c57d18
replacement data type 0x55b871105b40
blk-set is 4
replacement data 0x55b870c57d20
replacement data type 0x55b871105b40
blk-set is 4
replacement data 0x55b870c57d28
replacement data type 0x55b871105b40
blk-set is 4
replacement data 0x55b870c57d30
replacement data type 0x55b871105b40
blk-set is 4
replacement data 0x55b870c57d38
replacement data type 0x55b871105b40
blk-set is 4
replacement data 0x55b870c57d40
replacement data type 0x55b871105b40
blk-set is 4
replacement data 0x55b870c57d48
replacement data type 0x55b871105b40
blk-set is 4
replacement data 0x55b870c57d50
replacement data type 0x55b871105b40
blk-set is 4
replacement data 0x55b870c57d58
replacement data type 0x55b871105b40
blk-set is 4
replacement data 0x55b870c57d60
replacement data type 0x55b871105b40
blk-set is 4
replacement data 0x55b870c57d68
replacement data type 0x55b871105b40
blk-set is 4
replacement data 0x55b870c57d70
replacement data type 0x55b871105b40
blk-set is 5
replacement data 0x55b870c57d78
replacement data type 0x55b871105b40
blk-set is 5
replacement data 0x55b870c57d80
replacement data type 0x55b871105b40
blk-set is 5
replacement data 0x55b870c57d88
replacement data type 0x55b871105b40
blk-set is 5
replacement data 0x55b870c57d90
replacement data type 0x55b871105b40
blk-set is 5
replacement data 0x55b870c57d98
replacement data type 0x55b871105b40
blk-set is 5
replacement data 0x55b870c57da0
replacement data type 0x55b871105b40
blk-set is 5
replacement data 0x55b870c57da8
replacement data type 0x55b871105b40
blk-set is 5
replacement data 0x55b870c57db0
replacement data type 0x55b871105b40
blk-set is 5
replacement data 0x55b870c57db8
replacement data type 0x55b871105b40
blk-set is 5
replacement data 0x55b870c57dc0
replacement data type 0x55b871105b40
blk-set is 5
replacement data 0x55b870c57dc8
replacement data type 0x55b871105b40
blk-set is 5
replacement data 0x55b870c57dd0
replacement data type 0x55b871105b40
blk-set is 5
replacement data 0x55b870c57dd8
replacement data type 0x55b871105b40
blk-set is 5
replacement data 0x55b870c57de0
replacement data type 0x55b871105b40
blk-set is 5
replacement data 0x55b870c57de8
replacement data type 0x55b871105b40
blk-set is 5
replacement data 0x55b870c57df0
replacement data type 0x55b871105b40
blk-set is 6
replacement data 0x55b870c57df8
replacement data type 0x55b871105b40
blk-set is 6
replacement data 0x55b870c57e00
replacement data type 0x55b871105b40
blk-set is 6
replacement data 0x55b870c57e08
replacement data type 0x55b871105b40
blk-set is 6
replacement data 0x55b870c57e10
replacement data type 0x55b871105b40
blk-set is 6
replacement data 0x55b870c57e18
replacement data type 0x55b871105b40
blk-set is 6
replacement data 0x55b870c57e20
replacement data type 0x55b871105b40
blk-set is 6
replacement data 0x55b870c57e28
replacement data type 0x55b871105b40
blk-set is 6
replacement data 0x55b870c57e30
replacement data type 0x55b871105b40
blk-set is 6
replacement data 0x55b870c57e38
replacement data type 0x55b871105b40
blk-set is 6
replacement data 0x55b870c57e40
replacement data type 0x55b871105b40
blk-set is 6
replacement data 0x55b870c57e48
replacement data type 0x55b871105b40
blk-set is 6
replacement data 0x55b870c57e50
replacement data type 0x55b871105b40
blk-set is 6
replacement data 0x55b870c57e58
replacement data type 0x55b871105b40
blk-set is 6
replacement data 0x55b870c57e60
replacement data type 0x55b871105b40
blk-set is 6
replacement data 0x55b870c57e68
replacement data type 0x55b871105b40
blk-set is 6
replacement data 0x55b870c57e70
replacement data type 0x55b871105b40
blk-set is 7
replacement data 0x55b870c57e78
replacement data type 0x55b871105b40
blk-set is 7
replacement data 0x55b870c57e80
replacement data type 0x55b871105b40
blk-set is 7
replacement data 0x55b870c57e88
replacement data type 0x55b871105b40
blk-set is 7
replacement data 0x55b870c57e90
replacement data type 0x55b871105b40
blk-set is 7
replacement data 0x55b870c57e98
replacement data type 0x55b871105b40
blk-set is 7
replacement data 0x55b870c57ea0
replacement data type 0x55b871105b40
blk-set is 7
replacement data 0x55b870c57ea8
replacement data type 0x55b871105b40
blk-set is 7
replacement data 0x55b870c57eb0
replacement data type 0x55b871105b40
blk-set is 7
replacement data 0x55b870c57eb8
replacement data type 0x55b871105b40
blk-set is 7
replacement data 0x55b870c57ec0
replacement data type 0x55b871105b40
blk-set is 7
replacement data 0x55b870c57ec8
replacement data type 0x55b871105b40
blk-set is 7
replacement data 0x55b870c57ed0
replacement data type 0x55b871105b40
blk-set is 7
replacement data 0x55b870c57ed8
replacement data type 0x55b871105b40
blk-set is 7
replacement data 0x55b870c57ee0
replacement data type 0x55b871105b40
blk-set is 7
replacement data 0x55b870c57ee8
replacement data type 0x55b871105b40
blk-set is 7
replacement data 0x55b870c57ef0
replacement data type 0x55b871105b40
blk-set is 8
replacement data 0x55b870c57ef8
replacement data type 0x55b871105b40
blk-set is 8
replacement data 0x55b870c57f00
replacement data type 0x55b871105b40
blk-set is 8
replacement data 0x55b870c57f08
replacement data type 0x55b871105b40
blk-set is 8
replacement data 0x55b870c57f10
replacement data type 0x55b871105b40
blk-set is 8
replacement data 0x55b870c57f18
replacement data type 0x55b871105b40
blk-set is 8
replacement data 0x55b870c57f20
replacement data type 0x55b871105b40
blk-set is 8
replacement data 0x55b870c57f28
replacement data type 0x55b871105b40
blk-set is 8
replacement data 0x55b870c57f30
replacement data type 0x55b871105b40
blk-set is 8
replacement data 0x55b870c57f38
replacement data type 0x55b871105b40
blk-set is 8
replacement data 0x55b870c57f40
replacement data type 0x55b871105b40
blk-set is 8
replacement data 0x55b870c57f48
replacement data type 0x55b871105b40
blk-set is 8
replacement data 0x55b870c57f50
replacement data type 0x55b871105b40
blk-set is 8
replacement data 0x55b870c57f58
replacement data type 0x55b871105b40
blk-set is 8
replacement data 0x55b870c57f60
replacement data type 0x55b871105b40
blk-set is 8
replacement data 0x55b870c57f68
replacement data type 0x55b871105b40
blk-set is 8
replacement data 0x55b870c57f70
replacement data type 0x55b871105b40
blk-set is 9
replacement data 0x55b870c57f78
replacement data type 0x55b871105b40
blk-set is 9
replacement data 0x55b870c57f80
replacement data type 0x55b871105b40
blk-set is 9
replacement data 0x55b870c57f88
replacement data type 0x55b871105b40
blk-set is 9
replacement data 0x55b870c57f90
replacement data type 0x55b871105b40
blk-set is 9
replacement data 0x55b870c57f98
replacement data type 0x55b871105b40
blk-set is 9
replacement data 0x55b870c57fa0
replacement data type 0x55b871105b40
blk-set is 9
replacement data 0x55b870c57fa8
replacement data type 0x55b871105b40
blk-set is 9
replacement data 0x55b870c57fb0
replacement data type 0x55b871105b40
blk-set is 9
replacement data 0x55b870c57fb8
replacement data type 0x55b871105b40
blk-set is 9
replacement data 0x55b870c57fc0
replacement data type 0x55b871105b40
blk-set is 9
replacement data 0x55b870c57fc8
replacement data type 0x55b871105b40
blk-set is 9
replacement data 0x55b870c57fd0
replacement data type 0x55b871105b40
blk-set is 9
replacement data 0x55b870c57fd8
replacement data type 0x55b871105b40
blk-set is 9
replacement data 0x55b870c57fe0
replacement data type 0x55b871105b40
blk-set is 9
replacement data 0x55b870c57fe8
replacement data type 0x55b871105b40
blk-set is 9
replacement data 0x55b870c57ff0
replacement data type 0x55b871105b40
blk-set is 10
replacement data 0x55b870c57ff8
replacement data type 0x55b871105b40
blk-set is 10
replacement data 0x55b8715b0000
replacement data type 0x55b871105b40
blk-set is 10
replacement data 0x55b8715b0008
replacement data type 0x55b871105b40
blk-set is 10
replacement data 0x55b8715b0010
replacement data type 0x55b871105b40
blk-set is 10
replacement data 0x55b8715b0018
replacement data type 0x55b871105b40
blk-set is 10
replacement data 0x55b8715b0020
replacement data type 0x55b871105b40
blk-set is 10
replacement data 0x55b8715b0028
replacement data type 0x55b871105b40
blk-set is 10
replacement data 0x55b8715b0030
replacement data type 0x55b871105b40
blk-set is 10
replacement data 0x55b8715b0038
replacement data type 0x55b871105b40
blk-set is 10
replacement data 0x55b8715b0040
replacement data type 0x55b871105b40
blk-set is 10
replacement data 0x55b8715b0048
replacement data type 0x55b871105b40
blk-set is 10
replacement data 0x55b8715b0050
replacement data type 0x55b871105b40
blk-set is 10
replacement data 0x55b8715b0058
replacement data type 0x55b871105b40
blk-set is 10
replacement data 0x55b8715b0060
replacement data type 0x55b871105b40
blk-set is 10
replacement data 0x55b8715b0068
replacement data type 0x55b871105b40
blk-set is 10
replacement data 0x55b8715b0070
replacement data type 0x55b871105b40
blk-set is 11
replacement data 0x55b8715b0078
replacement data type 0x55b871105b40
blk-set is 11
replacement data 0x55b8715b0080
replacement data type 0x55b871105b40
blk-set is 11
replacement data 0x55b8715b0088
replacement data type 0x55b871105b40
blk-set is 11
replacement data 0x55b8715b0090
replacement data type 0x55b871105b40
blk-set is 11
replacement data 0x55b8715b0098
replacement data type 0x55b871105b40
blk-set is 11
replacement data 0x55b8715b00a0
replacement data type 0x55b871105b40
blk-set is 11
replacement data 0x55b8715b00a8
replacement data type 0x55b871105b40
blk-set is 11
replacement data 0x55b8715b00b0
replacement data type 0x55b871105b40
blk-set is 11
replacement data 0x55b8715b00b8
replacement data type 0x55b871105b40
blk-set is 11
replacement data 0x55b8715b00c0
replacement data type 0x55b871105b40
blk-set is 11
replacement data 0x55b8715b00c8
replacement data type 0x55b871105b40
blk-set is 11
replacement data 0x55b8715b00d0
replacement data type 0x55b871105b40
blk-set is 11
replacement data 0x55b8715b00d8
replacement data type 0x55b871105b40
blk-set is 11
replacement data 0x55b8715b00e0
replacement data type 0x55b871105b40
blk-set is 11
replacement data 0x55b8715b00e8
replacement data type 0x55b871105b40
blk-set is 11
replacement data 0x55b8715b00f0
replacement data type 0x55b871105b40
blk-set is 12
replacement data 0x55b8715b00f8
replacement data type 0x55b871105b40
blk-set is 12
replacement data 0x55b8715b0100
replacement data type 0x55b871105b40
blk-set is 12
replacement data 0x55b8715b0108
replacement data type 0x55b871105b40
blk-set is 12
replacement data 0x55b8715b0110
replacement data type 0x55b871105b40
blk-set is 12
replacement data 0x55b8715b0118
replacement data type 0x55b871105b40
blk-set is 12
replacement data 0x55b8715b0120
replacement data type 0x55b871105b40
blk-set is 12
replacement data 0x55b8715b0128
replacement data type 0x55b871105b40
blk-set is 12
replacement data 0x55b8715b0130
replacement data type 0x55b871105b40
blk-set is 12
replacement data 0x55b8715b0138
replacement data type 0x55b871105b40
blk-set is 12
replacement data 0x55b8715b0140
replacement data type 0x55b871105b40
blk-set is 12
replacement data 0x55b8715b0148
replacement data type 0x55b871105b40
blk-set is 12
replacement data 0x55b8715b0150
replacement data type 0x55b871105b40
blk-set is 12
replacement data 0x55b8715b0158
replacement data type 0x55b871105b40
blk-set is 12
replacement data 0x55b8715b0160
replacement data type 0x55b871105b40
blk-set is 12
replacement data 0x55b8715b0168
replacement data type 0x55b871105b40
blk-set is 12
replacement data 0x55b8715b0170
replacement data type 0x55b871105b40
blk-set is 13
replacement data 0x55b8715b0178
replacement data type 0x55b871105b40
blk-set is 13
replacement data 0x55b8715b0180
replacement data type 0x55b871105b40
blk-set is 13
replacement data 0x55b8715b0188
replacement data type 0x55b871105b40
blk-set is 13
replacement data 0x55b8715b0190
replacement data type 0x55b871105b40
blk-set is 13
replacement data 0x55b8715b0198
replacement data type 0x55b871105b40
blk-set is 13
replacement data 0x55b8715b01a0
replacement data type 0x55b871105b40
blk-set is 13
replacement data 0x55b8715b01a8
replacement data type 0x55b871105b40
blk-set is 13
replacement data 0x55b8715b01b0
replacement data type 0x55b871105b40
blk-set is 13
replacement data 0x55b8715b01b8
replacement data type 0x55b871105b40
blk-set is 13
replacement data 0x55b8715b01c0
replacement data type 0x55b871105b40
blk-set is 13
replacement data 0x55b8715b01c8
replacement data type 0x55b871105b40
blk-set is 13
replacement data 0x55b8715b01d0
replacement data type 0x55b871105b40
blk-set is 13
replacement data 0x55b8715b01d8
replacement data type 0x55b871105b40
blk-set is 13
replacement data 0x55b8715b01e0
replacement data type 0x55b871105b40
blk-set is 13
replacement data 0x55b8715b01e8
replacement data type 0x55b871105b40
blk-set is 13
replacement data 0x55b8715b01f0
replacement data type 0x55b871105b40
blk-set is 14
replacement data 0x55b8715b01f8
replacement data type 0x55b871105b40
blk-set is 14
replacement data 0x55b8715b0200
replacement data type 0x55b871105b40
blk-set is 14
replacement data 0x55b8715b0208
replacement data type 0x55b871105b40
blk-set is 14
replacement data 0x55b8715b0210
replacement data type 0x55b871105b40
blk-set is 14
replacement data 0x55b8715b0218
replacement data type 0x55b871105b40
blk-set is 14
replacement data 0x55b8715b0220
replacement data type 0x55b871105b40
blk-set is 14
replacement data 0x55b8715b0228
replacement data type 0x55b871105b40
blk-set is 14
replacement data 0x55b8715b0230
replacement data type 0x55b871105b40
blk-set is 14
replacement data 0x55b8715b0238
replacement data type 0x55b871105b40
blk-set is 14
replacement data 0x55b8715b0240
replacement data type 0x55b871105b40
blk-set is 14
replacement data 0x55b8715b0248
replacement data type 0x55b871105b40
blk-set is 14
replacement data 0x55b8715b0250
replacement data type 0x55b871105b40
blk-set is 14
replacement data 0x55b8715b0258
replacement data type 0x55b871105b40
blk-set is 14
replacement data 0x55b8715b0260
replacement data type 0x55b871105b40
blk-set is 14
replacement data 0x55b8715b0268
replacement data type 0x55b871105b40
blk-set is 14
replacement data 0x55b8715b0270
replacement data type 0x55b871105b40
blk-set is 15
replacement data 0x55b8715b0278
replacement data type 0x55b871105b40
blk-set is 15
replacement data 0x55b8715b0280
replacement data type 0x55b871105b40
blk-set is 15
replacement data 0x55b8715b0288
replacement data type 0x55b871105b40
blk-set is 15
replacement data 0x55b8715b0290
replacement data type 0x55b871105b40
blk-set is 15
replacement data 0x55b8715b0298
replacement data type 0x55b871105b40
blk-set is 15
replacement data 0x55b8715b02a0
replacement data type 0x55b871105b40
blk-set is 15
replacement data 0x55b8715b02a8
replacement data type 0x55b871105b40
blk-set is 15
replacement data 0x55b8715b02b0
replacement data type 0x55b871105b40
blk-set is 15
replacement data 0x55b8715b02b8
replacement data type 0x55b871105b40
blk-set is 15
replacement data 0x55b8715b02c0
replacement data type 0x55b871105b40
blk-set is 15
replacement data 0x55b8715b02c8
replacement data type 0x55b871105b40
blk-set is 15
replacement data 0x55b8715b02d0
replacement data type 0x55b871105b40
blk-set is 15
replacement data 0x55b8715b02d8
replacement data type 0x55b871105b40
blk-set is 15
replacement data 0x55b8715b02e0
replacement data type 0x55b871105b40
blk-set is 15
replacement data 0x55b8715b02e8
replacement data type 0x55b871105b40
blk-set is 15
replacement data 0x55b8715b02f0
replacement data type 0x55b871105b40
blk-set is 16
replacement data 0x55b8715b02f8
replacement data type 0x55b871105b40
blk-set is 16
replacement data 0x55b8715b0300
replacement data type 0x55b871105b40
blk-set is 16
replacement data 0x55b8715b0308
replacement data type 0x55b871105b40
blk-set is 16
replacement data 0x55b8715b0310
replacement data type 0x55b871105b40
blk-set is 16
replacement data 0x55b8715b0318
replacement data type 0x55b871105b40
blk-set is 16
replacement data 0x55b8715b0320
replacement data type 0x55b871105b40
blk-set is 16
replacement data 0x55b8715b0328
replacement data type 0x55b871105b40
blk-set is 16
replacement data 0x55b8715b0330
replacement data type 0x55b871105b40
blk-set is 16
replacement data 0x55b8715b0338
replacement data type 0x55b871105b40
blk-set is 16
replacement data 0x55b8715b0340
replacement data type 0x55b871105b40
blk-set is 16
replacement data 0x55b8715b0348
replacement data type 0x55b871105b40
blk-set is 16
replacement data 0x55b8715b0350
replacement data type 0x55b871105b40
blk-set is 16
replacement data 0x55b8715b0358
replacement data type 0x55b871105b40
blk-set is 16
replacement data 0x55b8715b0360
replacement data type 0x55b871105b40
blk-set is 16
replacement data 0x55b8715b0368
replacement data type 0x55b871105b40
blk-set is 16
replacement data 0x55b8715b0370
replacement data type 0x55b871105b40
blk-set is 17
replacement data 0x55b8715b0378
replacement data type 0x55b871105b40
blk-set is 17
replacement data 0x55b8715b0380
replacement data type 0x55b871105b40
blk-set is 17
replacement data 0x55b8715b0388
replacement data type 0x55b871105b40
blk-set is 17
replacement data 0x55b8715b0390
replacement data type 0x55b871105b40
blk-set is 17
replacement data 0x55b8715b0398
replacement data type 0x55b871105b40
blk-set is 17
replacement data 0x55b8715b03a0
replacement data type 0x55b871105b40
blk-set is 17
replacement data 0x55b8715b03a8
replacement data type 0x55b871105b40
blk-set is 17
replacement data 0x55b8715b03b0
replacement data type 0x55b871105b40
blk-set is 17
replacement data 0x55b8715b03b8
replacement data type 0x55b871105b40
blk-set is 17
replacement data 0x55b8715b03c0
replacement data type 0x55b871105b40
blk-set is 17
replacement data 0x55b8715b03c8
replacement data type 0x55b871105b40
blk-set is 17
replacement data 0x55b8715b03d0
replacement data type 0x55b871105b40
blk-set is 17
replacement data 0x55b8715b03d8
replacement data type 0x55b871105b40
blk-set is 17
replacement data 0x55b8715b03e0
replacement data type 0x55b871105b40
blk-set is 17
replacement data 0x55b8715b03e8
replacement data type 0x55b871105b40
blk-set is 17
replacement data 0x55b8715b03f0
replacement data type 0x55b871105b40
blk-set is 18
replacement data 0x55b8715b03f8
replacement data type 0x55b871105b40
blk-set is 18
replacement data 0x55b8715b0400
replacement data type 0x55b871105b40
blk-set is 18
replacement data 0x55b8715b0408
replacement data type 0x55b871105b40
blk-set is 18
replacement data 0x55b8715b0410
replacement data type 0x55b871105b40
blk-set is 18
replacement data 0x55b8715b0418
replacement data type 0x55b871105b40
blk-set is 18
replacement data 0x55b8715b0420
replacement data type 0x55b871105b40
blk-set is 18
replacement data 0x55b8715b0428
replacement data type 0x55b871105b40
blk-set is 18
replacement data 0x55b8715b0430
replacement data type 0x55b871105b40
blk-set is 18
replacement data 0x55b8715b0438
replacement data type 0x55b871105b40
blk-set is 18
replacement data 0x55b8715b0440
replacement data type 0x55b871105b40
blk-set is 18
replacement data 0x55b8715b0448
replacement data type 0x55b871105b40
blk-set is 18
replacement data 0x55b8715b0450
replacement data type 0x55b871105b40
blk-set is 18
replacement data 0x55b8715b0458
replacement data type 0x55b871105b40
blk-set is 18
replacement data 0x55b8715b0460
replacement data type 0x55b871105b40
blk-set is 18
replacement data 0x55b8715b0468
replacement data type 0x55b871105b40
blk-set is 18
replacement data 0x55b8715b0470
replacement data type 0x55b871105b40
blk-set is 19
replacement data 0x55b8715b0478
replacement data type 0x55b871105b40
blk-set is 19
replacement data 0x55b8715b0480
replacement data type 0x55b871105b40
blk-set is 19
replacement data 0x55b8715b0488
replacement data type 0x55b871105b40
blk-set is 19
replacement data 0x55b8715b0490
replacement data type 0x55b871105b40
blk-set is 19
replacement data 0x55b8715b0498
replacement data type 0x55b871105b40
blk-set is 19
replacement data 0x55b8715b04a0
replacement data type 0x55b871105b40
blk-set is 19
replacement data 0x55b8715b04a8
replacement data type 0x55b871105b40
blk-set is 19
replacement data 0x55b8715b04b0
replacement data type 0x55b871105b40
blk-set is 19
replacement data 0x55b8715b04b8
replacement data type 0x55b871105b40
blk-set is 19
replacement data 0x55b8715b04c0
replacement data type 0x55b871105b40
blk-set is 19
replacement data 0x55b8715b04c8
replacement data type 0x55b871105b40
blk-set is 19
replacement data 0x55b8715b04d0
replacement data type 0x55b871105b40
blk-set is 19
replacement data 0x55b8715b04d8
replacement data type 0x55b871105b40
blk-set is 19
replacement data 0x55b8715b04e0
replacement data type 0x55b871105b40
blk-set is 19
replacement data 0x55b8715b04e8
replacement data type 0x55b871105b40
blk-set is 19
replacement data 0x55b8715b04f0
replacement data type 0x55b871105b40
blk-set is 20
replacement data 0x55b8715b04f8
replacement data type 0x55b871105b40
blk-set is 20
replacement data 0x55b8715b0500
replacement data type 0x55b871105b40
blk-set is 20
replacement data 0x55b8715b0508
replacement data type 0x55b871105b40
blk-set is 20
replacement data 0x55b8715b0510
replacement data type 0x55b871105b40
blk-set is 20
replacement data 0x55b8715b0518
replacement data type 0x55b871105b40
blk-set is 20
replacement data 0x55b8715b0520
replacement data type 0x55b871105b40
blk-set is 20
replacement data 0x55b8715b0528
replacement data type 0x55b871105b40
blk-set is 20
replacement data 0x55b8715b0530
replacement data type 0x55b871105b40
blk-set is 20
replacement data 0x55b8715b0538
replacement data type 0x55b871105b40
blk-set is 20
replacement data 0x55b8715b0540
replacement data type 0x55b871105b40
blk-set is 20
replacement data 0x55b8715b0548
replacement data type 0x55b871105b40
blk-set is 20
replacement data 0x55b8715b0550
replacement data type 0x55b871105b40
blk-set is 20
replacement data 0x55b8715b0558
replacement data type 0x55b871105b40
blk-set is 20
replacement data 0x55b8715b0560
replacement data type 0x55b871105b40
blk-set is 20
replacement data 0x55b8715b0568
replacement data type 0x55b871105b40
blk-set is 20
replacement data 0x55b8715b0570
replacement data type 0x55b871105b40
blk-set is 21
replacement data 0x55b8715b0578
replacement data type 0x55b871105b40
blk-set is 21
replacement data 0x55b8715b0580
replacement data type 0x55b871105b40
blk-set is 21
replacement data 0x55b8715b0588
replacement data type 0x55b871105b40
blk-set is 21
replacement data 0x55b8715b0590
replacement data type 0x55b871105b40
blk-set is 21
replacement data 0x55b8715b0598
replacement data type 0x55b871105b40
blk-set is 21
replacement data 0x55b8715b05a0
replacement data type 0x55b871105b40
blk-set is 21
replacement data 0x55b8715b05a8
replacement data type 0x55b871105b40
blk-set is 21
replacement data 0x55b8715b05b0
replacement data type 0x55b871105b40
blk-set is 21
replacement data 0x55b8715b05b8
replacement data type 0x55b871105b40
blk-set is 21
replacement data 0x55b8715b05c0
replacement data type 0x55b871105b40
blk-set is 21
replacement data 0x55b8715b05c8
replacement data type 0x55b871105b40
blk-set is 21
replacement data 0x55b8715b05d0
replacement data type 0x55b871105b40
blk-set is 21
replacement data 0x55b8715b05d8
replacement data type 0x55b871105b40
blk-set is 21
replacement data 0x55b8715b05e0
replacement data type 0x55b871105b40
blk-set is 21
replacement data 0x55b8715b05e8
replacement data type 0x55b871105b40
blk-set is 21
replacement data 0x55b8715b05f0
replacement data type 0x55b871105b40
blk-set is 22
replacement data 0x55b8715b05f8
replacement data type 0x55b871105b40
blk-set is 22
replacement data 0x55b8715b0600
replacement data type 0x55b871105b40
blk-set is 22
replacement data 0x55b8715b0608
replacement data type 0x55b871105b40
blk-set is 22
replacement data 0x55b8715b0610
replacement data type 0x55b871105b40
blk-set is 22
replacement data 0x55b8715b0618
replacement data type 0x55b871105b40
blk-set is 22
replacement data 0x55b8715b0620
replacement data type 0x55b871105b40
blk-set is 22
replacement data 0x55b8715b0628
replacement data type 0x55b871105b40
blk-set is 22
replacement data 0x55b8715b0630
replacement data type 0x55b871105b40
blk-set is 22
replacement data 0x55b8715b0638
replacement data type 0x55b871105b40
blk-set is 22
replacement data 0x55b8715b0640
replacement data type 0x55b871105b40
blk-set is 22
replacement data 0x55b8715b0648
replacement data type 0x55b871105b40
blk-set is 22
replacement data 0x55b8715b0650
replacement data type 0x55b871105b40
blk-set is 22
replacement data 0x55b8715b0658
replacement data type 0x55b871105b40
blk-set is 22
replacement data 0x55b8715b0660
replacement data type 0x55b871105b40
blk-set is 22
replacement data 0x55b8715b0668
replacement data type 0x55b871105b40
blk-set is 22
replacement data 0x55b8715b0670
replacement data type 0x55b871105b40
blk-set is 23
replacement data 0x55b8715b0678
replacement data type 0x55b871105b40
blk-set is 23
replacement data 0x55b8715b0680
replacement data type 0x55b871105b40
blk-set is 23
replacement data 0x55b8715b0688
replacement data type 0x55b871105b40
blk-set is 23
replacement data 0x55b8715b0690
replacement data type 0x55b871105b40
blk-set is 23
replacement data 0x55b8715b0698
replacement data type 0x55b871105b40
blk-set is 23
replacement data 0x55b8715b06a0
replacement data type 0x55b871105b40
blk-set is 23
replacement data 0x55b8715b06a8
replacement data type 0x55b871105b40
blk-set is 23
replacement data 0x55b8715b06b0
replacement data type 0x55b871105b40
blk-set is 23
replacement data 0x55b8715b06b8
replacement data type 0x55b871105b40
blk-set is 23
replacement data 0x55b8715b06c0
replacement data type 0x55b871105b40
blk-set is 23
replacement data 0x55b8715b06c8
replacement data type 0x55b871105b40
blk-set is 23
replacement data 0x55b8715b06d0
replacement data type 0x55b871105b40
blk-set is 23
replacement data 0x55b8715b06d8
replacement data type 0x55b871105b40
blk-set is 23
replacement data 0x55b8715b06e0
replacement data type 0x55b871105b40
blk-set is 23
replacement data 0x55b8715b06e8
replacement data type 0x55b871105b40
blk-set is 23
replacement data 0x55b8715b06f0
replacement data type 0x55b871105b40
blk-set is 24
replacement data 0x55b8715b06f8
replacement data type 0x55b871105b40
blk-set is 24
replacement data 0x55b8715b0700
replacement data type 0x55b871105b40
blk-set is 24
replacement data 0x55b8715b0708
replacement data type 0x55b871105b40
blk-set is 24
replacement data 0x55b8715b0710
replacement data type 0x55b871105b40
blk-set is 24
replacement data 0x55b8715b0718
replacement data type 0x55b871105b40
blk-set is 24
replacement data 0x55b8715b0720
replacement data type 0x55b871105b40
blk-set is 24
replacement data 0x55b8715b0728
replacement data type 0x55b871105b40
blk-set is 24
replacement data 0x55b8715b0730
replacement data type 0x55b871105b40
blk-set is 24
replacement data 0x55b8715b0738
replacement data type 0x55b871105b40
blk-set is 24
replacement data 0x55b8715b0740
replacement data type 0x55b871105b40
blk-set is 24
replacement data 0x55b8715b0748
replacement data type 0x55b871105b40
blk-set is 24
replacement data 0x55b8715b0750
replacement data type 0x55b871105b40
blk-set is 24
replacement data 0x55b8715b0758
replacement data type 0x55b871105b40
blk-set is 24
replacement data 0x55b8715b0760
replacement data type 0x55b871105b40
blk-set is 24
replacement data 0x55b8715b0768
replacement data type 0x55b871105b40
blk-set is 24
replacement data 0x55b8715b0770
replacement data type 0x55b871105b40
blk-set is 25
replacement data 0x55b8715b0778
replacement data type 0x55b871105b40
blk-set is 25
replacement data 0x55b8715b0780
replacement data type 0x55b871105b40
blk-set is 25
replacement data 0x55b8715b0788
replacement data type 0x55b871105b40
blk-set is 25
replacement data 0x55b8715b0790
replacement data type 0x55b871105b40
blk-set is 25
replacement data 0x55b8715b0798
replacement data type 0x55b871105b40
blk-set is 25
replacement data 0x55b8715b07a0
replacement data type 0x55b871105b40
blk-set is 25
replacement data 0x55b8715b07a8
replacement data type 0x55b871105b40
blk-set is 25
replacement data 0x55b8715b07b0
replacement data type 0x55b871105b40
blk-set is 25
replacement data 0x55b8715b07b8
replacement data type 0x55b871105b40
blk-set is 25
replacement data 0x55b8715b07c0
replacement data type 0x55b871105b40
blk-set is 25
replacement data 0x55b8715b07c8
replacement data type 0x55b871105b40
blk-set is 25
replacement data 0x55b8715b07d0
replacement data type 0x55b871105b40
blk-set is 25
replacement data 0x55b8715b07d8
replacement data type 0x55b871105b40
blk-set is 25
replacement data 0x55b8715b07e0
replacement data type 0x55b871105b40
blk-set is 25
replacement data 0x55b8715b07e8
replacement data type 0x55b871105b40
blk-set is 25
replacement data 0x55b8715b07f0
replacement data type 0x55b871105b40
blk-set is 26
replacement data 0x55b8715b07f8
replacement data type 0x55b871105b40
blk-set is 26
replacement data 0x55b8715b0800
replacement data type 0x55b871105b40
blk-set is 26
replacement data 0x55b8715b0808
replacement data type 0x55b871105b40
blk-set is 26
replacement data 0x55b8715b0810
replacement data type 0x55b871105b40
blk-set is 26
replacement data 0x55b8715b0818
replacement data type 0x55b871105b40
blk-set is 26
replacement data 0x55b8715b0820
replacement data type 0x55b871105b40
blk-set is 26
replacement data 0x55b8715b0828
replacement data type 0x55b871105b40
blk-set is 26
replacement data 0x55b8715b0830
replacement data type 0x55b871105b40
blk-set is 26
replacement data 0x55b8715b0838
replacement data type 0x55b871105b40
blk-set is 26
replacement data 0x55b8715b0840
replacement data type 0x55b871105b40
blk-set is 26
replacement data 0x55b8715b0848
replacement data type 0x55b871105b40
blk-set is 26
replacement data 0x55b8715b0850
replacement data type 0x55b871105b40
blk-set is 26
replacement data 0x55b8715b0858
replacement data type 0x55b871105b40
blk-set is 26
replacement data 0x55b8715b0860
replacement data type 0x55b871105b40
blk-set is 26
replacement data 0x55b8715b0868
replacement data type 0x55b871105b40
blk-set is 26
replacement data 0x55b8715b0870
replacement data type 0x55b871105b40
blk-set is 27
replacement data 0x55b8715b0878
replacement data type 0x55b871105b40
blk-set is 27
replacement data 0x55b8715b0880
replacement data type 0x55b871105b40
blk-set is 27
replacement data 0x55b8715b0888
replacement data type 0x55b871105b40
blk-set is 27
replacement data 0x55b8715b0890
replacement data type 0x55b871105b40
blk-set is 27
replacement data 0x55b8715b0898
replacement data type 0x55b871105b40
blk-set is 27
replacement data 0x55b8715b08a0
replacement data type 0x55b871105b40
blk-set is 27
replacement data 0x55b8715b08a8
replacement data type 0x55b871105b40
blk-set is 27
replacement data 0x55b8715b08b0
replacement data type 0x55b871105b40
blk-set is 27
replacement data 0x55b8715b08b8
replacement data type 0x55b871105b40
blk-set is 27
replacement data 0x55b8715b08c0
replacement data type 0x55b871105b40
blk-set is 27
replacement data 0x55b8715b08c8
replacement data type 0x55b871105b40
blk-set is 27
replacement data 0x55b8715b08d0
replacement data type 0x55b871105b40
blk-set is 27
replacement data 0x55b8715b08d8
replacement data type 0x55b871105b40
blk-set is 27
replacement data 0x55b8715b08e0
replacement data type 0x55b871105b40
blk-set is 27
replacement data 0x55b8715b08e8
replacement data type 0x55b871105b40
blk-set is 27
replacement data 0x55b8715b08f0
replacement data type 0x55b871105b40
blk-set is 28
replacement data 0x55b8715b08f8
replacement data type 0x55b871105b40
blk-set is 28
replacement data 0x55b8715b0900
replacement data type 0x55b871105b40
blk-set is 28
replacement data 0x55b8715b0908
replacement data type 0x55b871105b40
blk-set is 28
replacement data 0x55b8715b0910
replacement data type 0x55b871105b40
blk-set is 28
replacement data 0x55b8715b0918
replacement data type 0x55b871105b40
blk-set is 28
replacement data 0x55b8715b0920
replacement data type 0x55b871105b40
blk-set is 28
replacement data 0x55b8715b0928
replacement data type 0x55b871105b40
blk-set is 28
replacement data 0x55b8715b0930
replacement data type 0x55b871105b40
blk-set is 28
replacement data 0x55b8715b0938
replacement data type 0x55b871105b40
blk-set is 28
replacement data 0x55b8715b0940
replacement data type 0x55b871105b40
blk-set is 28
replacement data 0x55b8715b0948
replacement data type 0x55b871105b40
blk-set is 28
replacement data 0x55b8715b0950
replacement data type 0x55b871105b40
blk-set is 28
replacement data 0x55b8715b0958
replacement data type 0x55b871105b40
blk-set is 28
replacement data 0x55b8715b0960
replacement data type 0x55b871105b40
blk-set is 28
replacement data 0x55b8715b0968
replacement data type 0x55b871105b40
blk-set is 28
replacement data 0x55b8715b0970
replacement data type 0x55b871105b40
blk-set is 29
replacement data 0x55b8715b0978
replacement data type 0x55b871105b40
blk-set is 29
replacement data 0x55b8715b0980
replacement data type 0x55b871105b40
blk-set is 29
replacement data 0x55b8715b0988
replacement data type 0x55b871105b40
blk-set is 29
replacement data 0x55b8715b0990
replacement data type 0x55b871105b40
blk-set is 29
replacement data 0x55b8715b0998
replacement data type 0x55b871105b40
blk-set is 29
replacement data 0x55b8715b09a0
replacement data type 0x55b871105b40
blk-set is 29
replacement data 0x55b8715b09a8
replacement data type 0x55b871105b40
blk-set is 29
replacement data 0x55b8715b09b0
replacement data type 0x55b871105b40
blk-set is 29
replacement data 0x55b8715b09b8
replacement data type 0x55b871105b40
blk-set is 29
replacement data 0x55b8715b09c0
replacement data type 0x55b871105b40
blk-set is 29
replacement data 0x55b8715b09c8
replacement data type 0x55b871105b40
blk-set is 29
replacement data 0x55b8715b09d0
replacement data type 0x55b871105b40
blk-set is 29
replacement data 0x55b8715b09d8
replacement data type 0x55b871105b40
blk-set is 29
replacement data 0x55b8715b09e0
replacement data type 0x55b871105b40
blk-set is 29
replacement data 0x55b8715b09e8
replacement data type 0x55b871105b40
blk-set is 29
replacement data 0x55b8715b09f0
replacement data type 0x55b871105b40
blk-set is 30
replacement data 0x55b8715b09f8
replacement data type 0x55b871105b40
blk-set is 30
replacement data 0x55b8715b0a00
replacement data type 0x55b871105b40
blk-set is 30
replacement data 0x55b8715b0a08
replacement data type 0x55b871105b40
blk-set is 30
replacement data 0x55b8715b0a10
replacement data type 0x55b871105b40
blk-set is 30
replacement data 0x55b8715b0a18
replacement data type 0x55b871105b40
blk-set is 30
replacement data 0x55b8715b0a20
replacement data type 0x55b871105b40
blk-set is 30
replacement data 0x55b8715b0a28
replacement data type 0x55b871105b40
blk-set is 30
replacement data 0x55b8715b0a30
replacement data type 0x55b871105b40
blk-set is 30
replacement data 0x55b8715b0a38
replacement data type 0x55b871105b40
blk-set is 30
replacement data 0x55b8715b0a40
replacement data type 0x55b871105b40
blk-set is 30
replacement data 0x55b8715b0a48
replacement data type 0x55b871105b40
blk-set is 30
replacement data 0x55b8715b0a50
replacement data type 0x55b871105b40
blk-set is 30
replacement data 0x55b8715b0a58
replacement data type 0x55b871105b40
blk-set is 30
replacement data 0x55b8715b0a60
replacement data type 0x55b871105b40
blk-set is 30
replacement data 0x55b8715b0a68
replacement data type 0x55b871105b40
blk-set is 30
replacement data 0x55b8715b0a70
replacement data type 0x55b871105b40
blk-set is 31
replacement data 0x55b8715b0a78
replacement data type 0x55b871105b40
blk-set is 31
replacement data 0x55b8715b0a80
replacement data type 0x55b871105b40
blk-set is 31
replacement data 0x55b8715b0a88
replacement data type 0x55b871105b40
blk-set is 31
replacement data 0x55b8715b0a90
replacement data type 0x55b871105b40
blk-set is 31
replacement data 0x55b8715b0a98
replacement data type 0x55b871105b40
blk-set is 31
replacement data 0x55b8715b0aa0
replacement data type 0x55b871105b40
blk-set is 31
replacement data 0x55b8715b0aa8
replacement data type 0x55b871105b40
blk-set is 31
replacement data 0x55b8715b0ab0
replacement data type 0x55b871105b40
blk-set is 31
replacement data 0x55b8715b0ab8
replacement data type 0x55b871105b40
blk-set is 31
replacement data 0x55b8715b0ac0
replacement data type 0x55b871105b40
blk-set is 31
replacement data 0x55b8715b0ac8
replacement data type 0x55b871105b40
blk-set is 31
replacement data 0x55b8715b0ad0
replacement data type 0x55b871105b40
blk-set is 31
replacement data 0x55b8715b0ad8
replacement data type 0x55b871105b40
blk-set is 31
replacement data 0x55b8715b0ae0
replacement data type 0x55b871105b40
blk-set is 31
replacement data 0x55b8715b0ae8
replacement data type 0x55b871105b40
blk-set is 31
**** REAL SIMULATION ****

Sorting 10000 elements.

youth
youth
youth
youth
youth
youth
youth
youth
youth
youth
youth
youth
youth
youth
youth
youth
youth
youth
youth
youth
youth
youth
youth
youth
youth
youth
youth
youth
youth
youth
yourself
yourself
yourself
yourself
yourself
yourself
yourself
yourself
yourself
yourself
yourself
yourself
yourself
yourself
yourself
yourself
yourself
yourself
yourself
yourself
yourself
yourself
yourself
yourself
yourself
yourself
yourself
yourself
yourself
yourself
yourself
yourself
yourself
yourself
yourself
yourself
yourself
yourself
yourself
yourself
yourself
yourself
yourself
yourself
yourself
yourself
yourself
yourself
yourself
yourself
yourself
yourself
yourself
yourself
yourself
yourself
yourself
yourself
yourself
yourself
yours
yours
yours
yours
yours
yours
yours
yours
yours
yours
yours
yours
yours
yours
yours
youre
youre
youre
youre
youre
youre
youre
youre
youre
youre
youre
youre
youre
youre
youre
youre
youre
youre
youre
youre
youre
youre
youre
youre
youre
youre
youre
youre
youre
youre
youre
youre
youre
youre
youre
youre
youre
youre
youre
youre
youre
youre
youre
youre
your
your
your
your
your
your
your
your
your
your
your
your
your
your
your
your
your
your
your
your
your
your
your
your
your
your
your
your
your
your
your
your
your
your
your
your
your
your
your
your
your
your
your
your
your
your
your
your
your
your
your
your
your
your
your
your
your
your
your
your
your
your
your
your
your
your
your
your
your
your
your
your
your
your
your
your
your
your
your
your
your
your
your
your
your
your
your
your
your
your
your
your
your
your
your
your
your
your
your
your
your
your
your
your
your
your
your
your
your
your
your
your
your
your
your
your
your
your
your
your
your
your
your
your
your
your
your
your
your
your
your
your
your
your
your
your
your
your
your
your
your
your
your
your
your
your
your
your
your
your
your
your
your
your
your
your
your
your
your
your
your
your
your
your
your
your
your
your
your
your
your
your
your
your
your
your
your
your
your
your
your
your
your
your
your
your
your
your
your
your
your
your
your
your
your
your
your
your
your
your
your
your
your
your
your
your
your
your
your
your
your
your
your
your
your
your
your
your
your
your
your
your
your
your
your
your
your
your
your
your
your
your
your
your
your
your
your
your
your
your
your
your
your
your
your
your
your
your
your
your
your
your
your
your
your
your
your
your
your
your
your
your
your
your
your
your
your
your
young
young
young
young
young
young
young
young
young
young
young
young
young
young
young
young
young
young
young
young
young
young
young
young
young
young
young
young
youll
youll
youll
youll
youll
youll
youll
youll
youll
youll
youll
youll
youll
youll
youll
youll
youll
youll
youll
youll
youll
youll
youll
youll
youll
youll
youll
youll
youll
youll
youll
youll
youll
youll
youll
youll
youll
youll
youll
youll
youll
youll
youll
youll
youll
youll
youll
youll
youll
youll
youll
youll
youll
youll
youll
youll
youll
youll
youll
youll
youll
youll
youll
youll
youll
youll
youll
youll
youll
youll
youll
youll
youll
youll
youll
youll
youll
youll
youll
youll
youll
youll
youll
youll
youll
youll
youll
youll
youll
youll
youll
youll
youll
youll
youll
youll
youll
youll
youll
youll
youll
youll
youll
youll
youll
youll
youll
youll
youll
youll
youll
youll
youll
youll
youll
youll
youll
youll
you
you
you
you
you
you
you
you
you
you
you
you
you
you
you
you
you
you
you
you
you
you
you
you
you
you
you
you
you
you
you
you
you
you
you
you
you
you
you
you
you
you
you
you
you
you
you
you
you
you
you
you
you
you
you
you
you
you
you
you
you
you
you
you
you
you
you
you
you
you
you
you
you
you
you
you
you
you
you
you
you
you
you
you
you
you
you
you
you
you
you
you
you
you
you
you
you
you
you
you
you
you
you
you
you
you
you
you
you
you
you
you
you
you
you
you
you
you
you
you
you
you
you
you
you
you
you
you
you
you
you
you
you
you
you
you
you
you
you
you
you
you
you
you
you
you
you
you
you
you
you
you
you
you
you
you
you
you
you
you
you
you
you
you
you
you
you
you
you
you
you
you
you
you
you
you
you
you
you
you
you
you
you
you
you
you
you
you
you
you
you
you
you
you
you
you
you
you
you
you
you
you
you
you
you
you
you
you
you
you
you
you
you
you
you
you
you
you
you
you
you
you
you
you
you
you
you
you
you
you
you
you
you
you
you
you
you
you
you
you
you
you
you
you
you
you
you
you
you
you
you
you
you
you
you
you
you
you
you
you
you
you
you
you
you
you
you
you
you
you
you
you
you
you
you
you
you
you
you
you
you
you
you
you
you
you
you
you
you
you
you
you
you
you
you
you
you
you
you
you
you
you
you
you
you
you
you
you
you
you
you
you
you
you
you
you
you
you
you
you
you
you
you
you
you
you
you
you
you
you
you
you
you
you
you
you
you
you
you
you
you
you
you
you
you
you
you
you
you
you
you
you
you
you
you
you
you
you
you
you
you
you
you
you
you
you
you
you
you
you
you
you
you
you
you
you
you
you
you
you
you
you
you
you
you
you
you
you
you
you
you
you
you
you
you
you
you
you
you
you
you
you
you
you
you
you
you
you
you
you
you
you
you
you
you
you
you
you
you
you
you
you
you
you
you
you
you
you
you
you
you
you
you
you
you
you
you
you
you
you
you
you
you
you
you
you
you
you
you
you
you
you
you
you
you
you
you
you
you
you
you
you
you
you
you
you
years
years
years
years
years
years
years
years
years
years
years
years
years
years
years
would
would
would
would
would
would
would
would
would
would
would
would
would
would
would
worth
worth
worth
worth
worth
worth
worth
worth
worth
worth
worth
worth
worth
worth
worrying
worrying
worrying
worrying
worrying
worrying
worrying
worrying
worrying
worrying
worrying
worrying
worrying
worrying
worrying
worry
worry
worry
worry
worry
worry
worry
worry
worry
worry
worry
worry
worry
worry
worry
worry
worry
worry
worry
worry
worry
worry
worry
worry
worry
worry
worry
worry
worry
worry
worried
worried
worried
worried
worried
worried
worried
worried
worried
worried
worried
worried
worried
worried
worried
wont
wont
wont
wont
wont
wont
wont
wont
wont
wont
wont
wont
wont
wont
wont
wont
wont
wont
wont
wont
wont
wont
wont
wont
wont
wont
wont
wont
wont
wont
with
with
with
with
with
with
with
with
with
with
with
with
with
with
with
with
with
with
with
with
with
with
with
with
with
with
with
with
with
with
with
with
with
with
with
with
with
with
with
with
with
with
with
with
with
with
with
with
with
with
with
with
with
with
with
with
with
with
with
with
with
with
with
with
with
with
with
with
with
with
with
with
with
with
with
with
with
with
with
with
with
with
with
with
with
with
with
with
with
with
with
with
with
with
with
with
with
with
with
with
with
with
with
with
with
with
with
with
with
with
with
with
with
with
with
with
with
with
with
with
with
with
with
with
with
with
with
with
with
with
with
with
with
with
with
with
with
with
with
with
with
with
with
with
with
with
wiping
wiping
wiping
wiping
wiping
wiping
wiping
wiping
wiping
wiping
wiping
wiping
wiping
wiping
will
will
will
will
will
will
will
will
will
will
will
will
will
will
will
will
will
will
will
will
will
will
will
will
will
will
will
will
will
will
will
will
will
will
will
will
will
will
will
will
will
will
will
will
will
will
will
will
will
will
will
will
will
will
will
will
will
will
will
will
will
will
will
will
will
will
will
will
will
will
will
will
will
will
will
will
will
will
will
will
will
will
will
will
will
will
will
will
will
will
will
will
will
will
will
will
will
will
will
will
will
whose
whose
whose
whose
whose
whose
whose
whose
whose
whose
whose
whose
whose
whose
who
who
who
who
who
who
who
who
who
who
who
who
who
who
who
who
who
who
who
who
who
who
who
who
who
who
who
who
who
who
who
who
who
who
who
who
who
who
who
who
who
who
who
whereas
whereas
whereas
whereas
whereas
whereas
whereas
whereas
whereas
whereas
whereas
whereas
whereas
whereas
whereas
when
when
when
when
when
when
when
when
when
when
when
when
when
when
when
when
when
when
when
when
when
when
when
when
when
when
when
when
when
when
when
when
when
when
when
when
when
when
when
when
when
when
when
when
when
when
when
when
when
when
when
when
when
when
when
when
when
when
when
when
when
when
when
when
when
when
when
when
when
when
when
when
when
when
when
when
when
when
when
when
when
when
when
when
when
when
what
what
what
what
what
what
what
what
what
what
what
what
what
what
what
what
what
what
what
what
what
what
what
what
what
what
what
what
what
what
what
what
what
what
what
what
what
what
what
what
what
what
what
what
what
were
were
were
were
were
were
were
were
were
were
were
were
were
were
were
were
were
were
were
were
were
were
were
were
were
were
were
were
were
were
were
were
were
were
were
were
were
were
were
were
were
were
were
were
were
were
were
were
were
were
were
were
were
were
were
were
wedding
wedding
wedding
wedding
wedding
wedding
wedding
wedding
wedding
wedding
wedding
wedding
wedding
wedding
wedding
wealthy
wealthy
wealthy
wealthy
wealthy
wealthy
wealthy
wealthy
wealthy
wealthy
wealthy
wealthy
wealthy
wealthy
way
way
way
way
way
way
way
way
way
way
way
way
way
way
way
way
way
way
way
way
way
way
way
way
way
way
way
way
way
way
way
way
way
way
way
way
way
way
way
way
way
way
way
way
waste
waste
waste
waste
waste
waste
waste
waste
waste
waste
waste
waste
waste
waste
waste
wanted
wanted
wanted
wanted
wanted
wanted
wanted
wanted
wanted
wanted
wanted
wanted
wanted
wanted
wanted
want
want
want
want
want
want
want
want
want
want
want
want
want
want
want
up
up
up
up
up
up
up
up
up
up
up
up
up
up
up
until
until
until
until
until
until
until
until
until
until
until
until
until
until
until
understand
understand
understand
understand
understand
understand
understand
understand
understand
understand
understand
understand
understand
understand
understand
ugly
ugly
ugly
ugly
ugly
ugly
ugly
ugly
ugly
ugly
ugly
ugly
ugly
ugly
ugly
ugly
ugly
ugly
ugly
ugly
ugly
ugly
ugly
ugly
ugly
ugly
ugly
ugly
ugly
trying
trying
trying
trying
trying
trying
trying
trying
trying
trying
trying
trying
trying
trying
trying
truths
truths
truths
truths
truths
truths
truths
truths
truths
truths
truths
truths
truths
truths
trust
trust
trust
trust
trust
trust
trust
trust
trust
trust
trust
trust
trust
trust
trust
trust
trust
trust
trust
trust
trust
trust
trust
trust
trust
trust
trust
trust
trust
trust
trust
trust
trust
trust
trust
trust
trust
trust
trust
trust
trust
trust
trust
troubles
troubles
troubles
troubles
troubles
troubles
troubles
troubles
troubles
troubles
troubles
troubles
troubles
troubles
troubles
too
too
too
too
too
too
too
too
too
too
too
too
too
too
too
too
too
too
too
too
too
too
too
too
too
too
too
too
too
too
too
too
too
too
too
too
too
too
too
too
too
too
too
to
to
to
to
to
to
to
to
to
to
to
to
to
to
to
to
to
to
to
to
to
to
to
to
to
to
to
to
to
to
to
to
to
to
to
to
to
to
to
to
to
to
to
to
to
to
to
to
to
to
to
to
to
to
to
to
to
to
to
to
to
to
to
to
to
to
to
to
to
to
to
to
to
to
to
to
to
to
to
to
to
to
to
to
to
to
to
to
to
to
to
to
to
to
to
to
to
to
to
to
to
to
to
to
to
to
to
to
to
to
to
to
to
to
to
to
to
to
to
to
to
to
to
to
to
to
to
to
to
to
to
to
to
to
to
to
to
to
to
to
to
to
to
to
to
to
to
to
to
to
to
to
to
to
to
to
to
to
to
to
to
to
to
to
to
to
to
to
to
to
to
to
to
to
to
to
to
to
tip
tip
tip
tip
tip
tip
tip
tip
tip
tip
tip
tip
tip
tip
tip
time
time
time
time
time
time
time
time
time
time
time
time
time
time
time
time
time
time
time
time
time
time
time
time
time
time
time
time
time
those
those
those
those
those
those
those
those
those
those
those
those
those
those
this
this
this
this
this
this
this
this
this
this
this
this
this
this
this
this
this
this
this
this
this
this
this
this
this
this
this
this
this
this
think
think
think
think
think
think
think
think
think
think
think
think
think
think
think
things
things
things
things
things
things
things
things
things
things
things
things
things
things
things
thing
thing
thing
thing
thing
thing
thing
thing
thing
thing
thing
thing
thing
thing
thing
theyve
theyve
theyve
theyve
theyve
theyve
theyve
theyve
theyve
theyve
theyve
theyve
theyve
theyve
theyve
theyre
theyre
theyre
theyre
theyre
theyre
theyre
theyre
theyre
theyre
theyre
theyre
theyre
theyre
theyre
theyll
theyll
theyll
theyll
theyll
theyll
theyll
theyll
theyll
theyll
theyll
theyll
theyll
theyll
theyll
they
they
they
they
they
they
they
they
they
they
they
they
they
they
they
them
them
them
them
them
them
them
them
them
them
them
them
them
them
them
them
them
them
them
them
them
them
them
them
them
them
them
them
them
them
their
their
their
their
their
their
their
their
their
their
their
their
their
their
their
their
their
their
their
their
their
their
their
their
their
their
their
their
their
the
the
the
the
the
the
the
the
the
the
the
the
the
the
the
the
the
the
the
the
the
the
the
the
the
the
the
the
the
the
the
the
the
the
the
the
the
the
the
the
the
the
the
the
the
the
the
the
the
the
the
the
the
the
the
the
the
the
the
the
the
the
the
the
the
the
the
the
the
the
the
the
the
the
the
the
the
the
the
the
the
the
the
the
the
the
the
the
the
the
the
the
the
the
the
the
the
the
the
the
the
the
the
the
the
the
the
the
the
the
the
the
the
the
the
the
the
the
the
the
the
the
the
the
the
the
the
the
the
the
the
the
the
the
the
the
the
the
the
the
the
the
the
the
the
the
the
the
the
the
the
the
the
the
the
the
the
the
the
the
the
the
the
the
the
the
the
the
the
the
the
the
the
the
the
the
the
the
the
the
the
the
the
the
the
the
the
the
the
the
the
the
the
the
the
the
the
the
the
the
the
the
the
the
the
the
the
the
the
the
the
the
the
the
the
the
the
the
the
the
the
the
the
the
the
the
the
the
the
the
the
the
the
the
the
the
the
the
the
the
the
the
the
the
the
the
the
the
the
the
the
the
the
the
the
the
the
the
the
the
the
the
the
the
the
the
the
the
the
the
the
the
the
the
the
the
the
the
the
the
the
the
the
the
the
the
the
the
the
the
the
the
the
the
the
the
the
the
the
the
the
the
the
the
the
the
the
the
the
the
the
the
the
the
the
the
the
the
the
the
the
the
the
the
the
the
the
the
the
the
the
the
the
the
the
the
the
the
the
the
the
the
the
the
the
the
the
the
the
the
that
that
that
that
that
that
that
that
that
that
that
that
that
that
that
that
that
that
that
that
that
that
that
that
that
that
that
that
that
that
that
that
that
that
that
that
that
that
that
that
that
that
that
that
that
that
that
that
that
that
that
that
that
that
that
that
that
that
that
that
that
that
that
that
that
that
that
that
that
that
that
that
that
that
that
that
that
that
that
that
that
that
that
that
that
that
that
that
than
than
than
than
than
than
than
than
than
than
than
than
than
than
than
than
than
than
than
than
than
than
than
than
than
than
than
than
than
tell
tell
tell
tell
tell
tell
tell
tell
tell
tell
tell
tell
tell
tell
tell
support
support
support
support
support
support
support
support
support
support
support
support
support
support
supply
supply
supply
supply
supply
supply
supply
supply
supply
supply
supply
supply
supply
supply
sunscreen
sunscreen
sunscreen
sunscreen
sunscreen
sunscreen
sunscreen
sunscreen
sunscreen
sunscreen
sunscreen
sunscreen
sunscreen
sunscreen
sunscreen
sunscreen
sunscreen
sunscreen
sunscreen
sunscreen
sunscreen
sunscreen
sunscreen
sunscreen
sunscreen
sunscreen
sunscreen
sunscreen
sunscreen
sunscreen
sunscreen
sunscreen
sunscreen
sunscreen
sunscreen
sunscreen
sunscreen
sunscreen
sunscreen
sunscreen
sunscreen
sunscreen
sunscreen
sunscreen
sunscreen
sunscreen
sunscreen
sunscreen
sunscreen
sunscreen
sunscreen
sunscreen
sunscreen
sunscreen
sunscreen
sunscreen
sunscreen
sunscreen
sunscreen
succeed
succeed
succeed
succeed
succeed
succeed
succeed
succeed
succeed
succeed
succeed
succeed
succeed
succeed
succeed
still
still
still
still
still
still
still
still
still
still
still
still
still
still
still
stick
stick
stick
stick
stick
stick
stick
stick
stick
stick
stick
stick
stick
stick
statements
statements
statements
statements
statements
statements
statements
statements
statements
statements
statements
statements
statements
statements
statements
spouse
spouse
spouse
spouse
spouse
spouse
spouse
spouse
spouse
spouse
spouse
spouse
spouse
spouse
sometimes
sometimes
sometimes
sometimes
sometimes
sometimes
sometimes
sometimes
sometimes
sometimes
sometimes
sometimes
sometimes
sometimes
sometimes
some
some
some
some
some
some
some
some
some
some
some
some
some
some
some
solve
solve
solve
solve
solve
solve
solve
solve
solve
solve
solve
solve
solve
solve
solve
soft
soft
soft
soft
soft
soft
soft
soft
soft
soft
soft
soft
soft
soft
siblings
siblings
siblings
siblings
siblings
siblings
siblings
siblings
siblings
siblings
siblings
siblings
siblings
siblings
siblings
should
should
should
should
should
should
should
should
should
should
should
should
should
should
scientists
scientists
scientists
scientists
scientists
scientists
scientists
scientists
scientists
scientists
scientists
scientists
scientists
scientists
scientists
scares
scares
scares
scares
scares
scares
scares
scares
scares
scares
scares
scares
scares
scares
scares
run
run
run
run
run
run
run
run
run
run
run
run
run
run
room
room
room
room
room
room
room
room
room
room
room
room
room
room
room
rise
rise
rise
rise
rise
rise
rise
rise
rise
rise
rise
rise
rise
rise
rest
rest
rest
rest
rest
rest
rest
rest
rest
rest
rest
rest
rest
rest
rest
respected
respected
respected
respected
respected
respected
respected
respected
respected
respected
respected
respected
respected
respected
reliable
reliable
reliable
reliable
reliable
reliable
reliable
reliable
reliable
reliable
reliable
reliable
reliable
reliable
reliable
recycling
recycling
recycling
recycling
recycling
recycling
recycling
recycling
recycling
recycling
recycling
recycling
recycling
recycling
reckless
reckless
reckless
reckless
reckless
reckless
reckless
reckless
reckless
reckless
reckless
reckless
reckless
reckless
reckless
reckless
reckless
reckless
reckless
reckless
reckless
reckless
reckless
reckless
reckless
reckless
reckless
reckless
reckless
reckless
receive
receive
receive
receive
receive
receive
receive
receive
receive
receive
receive
receive
receive
receive
receive
recall
recall
recall
recall
recall
recall
recall
recall
recall
recall
recall
recall
recall
recall
recall
reasonable
reasonable
reasonable
reasonable
reasonable
reasonable
reasonable
reasonable
reasonable
reasonable
reasonable
reasonable
reasonable
reasonable
really
really
really
really
really
really
really
really
really
really
really
really
really
really
really
real
real
real
real
real
real
real
real
real
real
real
real
real
real
real
read
read
read
read
read
read
read
read
read
read
read
read
read
read
read
race
race
race
race
race
race
race
race
race
race
race
race
race
race
race
put
put
put
put
put
put
put
put
put
put
put
put
put
put
put
proved
proved
proved
proved
proved
proved
proved
proved
proved
proved
proved
proved
proved
proved
proved
prices
prices
prices
prices
prices
prices
prices
prices
prices
prices
prices
prices
prices
prices
precious
precious
precious
precious
precious
precious
precious
precious
precious
precious
precious
precious
precious
precious
power
power
power
power
power
power
power
power
power
power
power
power
power
power
power
power
power
power
power
power
power
power
power
power
power
power
power
power
power
power
possibility
possibility
possibility
possibility
possibility
possibility
possibility
possibility
possibility
possibility
possibility
possibility
possibility
possibility
possibility
politicians
politicians
politicians
politicians
politicians
politicians
politicians
politicians
politicians
politicians
politicians
politicians
politicians
politicians
pm
pm
pm
pm
pm
pm
pm
pm
pm
pm
pm
pm
pm
pm
pm
plenty
plenty
plenty
plenty
plenty
plenty
plenty
plenty
plenty
plenty
plenty
plenty
plenty
plenty
plenty
photos
photos
photos
photos
photos
photos
photos
photos
photos
photos
photos
photos
photos
photos
photos
philander
philander
philander
philander
philander
philander
philander
philander
philander
philander
philander
philander
philander
philander
peoples
peoples
peoples
peoples
peoples
peoples
peoples
peoples
peoples
peoples
peoples
peoples
peoples
peoples
peoples
people
people
people
people
people
people
people
people
people
people
people
people
people
people
people
people
people
people
people
people
people
people
people
people
people
people
people
people
people
people
people
people
people
people
people
people
people
people
people
people
people
people
people
people
people
people
people
people
people
people
people
people
people
people
people
people
people
people
people
people
people
people
people
people
people
people
people
people
people
people
people
people
people
people
patient
patient
patient
patient
patient
patient
patient
patient
patient
patient
patient
patient
patient
patient
past
past
past
past
past
past
past
past
past
past
past
past
past
past
past
past
past
past
past
past
past
past
past
past
past
past
past
past
past
parts
parts
parts
parts
parts
parts
parts
parts
parts
parts
parts
parts
parts
parts
parents
parents
parents
parents
parents
parents
parents
parents
parents
parents
parents
parents
parents
parents
parents
painting
painting
painting
painting
painting
painting
painting
painting
painting
painting
painting
painting
painting
painting
own
own
own
own
own
own
own
own
own
own
own
own
own
own
own
own
own
own
own
own
own
own
own
own
own
own
own
own
own
own
over
over
over
over
over
over
over
over
over
over
over
over
over
over
out
out
out
out
out
out
out
out
out
out
out
out
out
out
other
other
other
other
other
other
other
other
other
other
other
other
other
other
other
other
other
other
other
other
other
other
other
other
other
other
other
other
other
other
or
or
or
or
or
or
or
or
or
or
or
or
or
or
or
or
or
or
or
or
or
or
or
or
or
or
or
or
or
or
or
or
or
or
or
or
or
or
or
or
or
or
or
or
only
only
only
only
only
only
only
only
only
only
only
only
only
only
only
only
only
only
only
only
only
only
only
only
only
only
only
only
only
only
only
only
only
only
only
only
only
only
only
only
only
only
only
only
only
one
one
one
one
one
one
one
one
one
one
one
one
one
one
one
one
one
one
one
one
one
one
one
one
one
one
one
one
one
one
one
one
one
one
one
one
one
one
one
one
one
one
one
one
once
once
once
once
once
once
once
once
once
once
once
once
once
once
once
once
once
once
once
once
once
once
once
once
once
once
once
once
on
on
on
on
on
on
on
on
on
on
on
on
on
on
on
on
on
on
on
on
on
on
on
on
on
on
on
on
on
on
on
on
on
on
on
on
on
on
on
on
on
on
on
on
on
on
on
on
on
on
on
on
on
on
on
on
on
on
on
on
on
on
on
on
on
on
on
on
on
on
on
on
on
older
older
older
older
older
older
older
older
older
older
older
older
older
older
old
old
old
old
old
old
old
old
old
old
old
old
old
old
old
old
old
old
old
old
old
old
old
old
old
old
old
old
old
old
old
old
old
old
old
old
old
old
old
old
old
old
old
old
offer
offer
offer
offer
offer
offer
offer
offer
offer
offer
offer
offer
offer
offer
offer
off
off
off
off
off
off
off
off
off
off
off
off
off
off
of
of
of
of
of
of
of
of
of
of
of
of
of
of
of
of
of
of
of
of
of
of
of
of
of
of
of
of
of
of
of
of
of
of
of
of
of
of
of
of
of
of
of
of
of
of
of
of
of
of
of
of
of
of
of
of
of
of
of
of
of
of
of
of
of
of
of
of
of
of
of
of
of
of
of
of
of
of
of
of
of
of
of
of
of
of
of
of
of
of
of
of
of
of
of
of
of
of
of
of
of
of
of
of
of
of
of
of
of
of
of
of
of
of
of
of
of
of
of
of
of
of
of
of
of
of
of
of
of
of
of
of
of
of
of
of
of
of
of
of
of
of
of
of
of
of
of
of
of
of
of
of
of
of
of
of
of
of
of
of
of
of
of
of
of
of
of
of
of
of
of
of
of
of
of
of
of
of
of
of
of
of
of
of
of
of
of
of
of
of
of
of
of
of
of
of
of
of
of
of
of
of
of
of
of
of
of
of
nowhere
nowhere
nowhere
nowhere
nowhere
nowhere
nowhere
nowhere
nowhere
nowhere
nowhere
nowhere
nowhere
nowhere
nowhere
now
now
now
now
now
now
now
now
now
now
now
now
now
now
now
now
now
now
now
now
now
now
now
now
now
now
now
now
now
now
not
not
not
not
not
not
not
not
not
not
not
not
not
not
not
not
not
not
not
not
not
not
not
not
not
not
not
not
not
not
not
not
not
not
not
not
not
not
not
not
not
not
not
not
not
nostalgia
nostalgia
nostalgia
nostalgia
nostalgia
nostalgia
nostalgia
nostalgia
nostalgia
nostalgia
nostalgia
nostalgia
nostalgia
nostalgia
noble
noble
noble
noble
noble
noble
noble
noble
noble
noble
noble
noble
noble
noble
no
no
no
no
no
no
no
no
no
no
no
no
no
no
no
nice
nice
nice
nice
nice
nice
nice
nice
nice
nice
nice
nice
nice
nice
nice
never
never
never
never
never
never
never
never
never
never
never
never
never
never
never
never
never
never
never
never
never
never
never
never
never
never
never
never
never
never
never
never
never
never
never
never
never
never
never
never
never
never
never
never
never
never
never
never
never
never
never
never
never
never
never
never
never
never
never
need
need
need
need
need
need
need
need
need
need
need
need
need
need
my
my
my
my
my
my
my
my
my
my
my
my
my
my
my
my
my
my
my
my
my
my
my
my
my
my
my
my
my
my
much
much
much
much
much
much
much
much
much
much
much
much
much
much
much
much
much
much
much
much
much
much
much
much
much
much
much
much
much
much
much
much
much
much
much
much
much
much
much
much
much
much
much
much
most
most
most
most
most
most
most
most
most
most
most
most
most
most
most
most
most
most
most
most
most
most
most
most
most
most
most
most
most
most
most
most
most
most
most
most
most
most
most
most
most
most
most
most
most
more
more
more
more
more
more
more
more
more
more
more
more
more
more
more
more
more
more
more
more
more
more
more
more
more
more
more
more
more
more
more
more
more
more
more
more
more
more
more
more
more
more
more
miss
miss
miss
miss
miss
miss
miss
miss
miss
miss
miss
miss
miss
miss
miss
mind
mind
mind
mind
mind
mind
mind
mind
mind
mind
mind
mind
mind
mind
mind
mind
mind
mind
mind
mind
mind
mind
mind
mind
mind
mind
mind
mind
mind
mind
might
might
might
might
might
might
might
might
might
might
might
might
might
might
mess
mess
mess
mess
mess
mess
mess
mess
mess
mess
mess
mess
mess
mess
meandering
meandering
meandering
meandering
meandering
meandering
meandering
meandering
meandering
meandering
meandering
meandering
meandering
meandering
meandering
me
me
me
me
me
me
me
me
me
me
me
me
me
me
me
me
me
me
me
me
me
me
me
me
me
me
me
me
me
me
me
me
me
me
me
me
me
me
me
me
me
me
me
me
maybe
maybe
maybe
maybe
maybe
maybe
maybe
maybe
maybe
maybe
maybe
maybe
maybe
maybe
maybe
maybe
maybe
maybe
maybe
maybe
maybe
maybe
maybe
maybe
maybe
maybe
maybe
maybe
maybe
maybe
maybe
maybe
maybe
maybe
maybe
maybe
maybe
maybe
maybe
maybe
maybe
maybe
maybe
maybe
maybe
marry
marry
marry
marry
marry
marry
marry
marry
marry
marry
marry
marry
marry
marry
marry
makes
makes
makes
makes
makes
makes
makes
makes
makes
makes
makes
makes
makes
makes
makes
makes
makes
makes
makes
makes
makes
makes
makes
makes
makes
makes
makes
makes
make
make
make
make
make
make
make
make
make
make
make
make
make
make
make
magazines
magazines
magazines
magazines
magazines
magazines
magazines
magazines
magazines
magazines
magazines
magazines
magazines
magazines
magazines
love
love
love
love
love
love
love
love
love
love
love
love
love
love
love
looked
looked
looked
looked
looked
looked
looked
looked
looked
looked
looked
looked
looked
looked
looked
look
look
look
look
look
look
look
look
look
look
look
look
look
look
look
look
look
look
look
look
look
look
look
look
look
look
look
look
look
longterm
longterm
longterm
longterm
longterm
longterm
longterm
longterm
longterm
longterm
longterm
longterm
longterm
longterm
longterm
long
long
long
long
long
long
long
long
long
long
long
long
long
long
long
living
living
living
living
living
living
living
living
living
living
living
living
living
living
living
lives
lives
lives
lives
lives
lives
lives
lives
lives
lives
lives
lives
lives
lives
lives
link
link
link
link
link
link
link
link
link
link
link
link
link
link
link
likely
likely
likely
likely
likely
likely
likely
likely
likely
likely
likely
likely
likely
likely
likely
lifestyle
lifestyle
lifestyle
lifestyle
lifestyle
lifestyle
lifestyle
lifestyle
lifestyle
lifestyle
lifestyle
lifestyle
lifestyle
lifestyle
life
life
life
life
life
life
life
life
life
life
life
life
life
life
life
life
life
life
life
life
life
life
life
life
life
life
life
life
life
life
letters
letters
letters
letters
letters
letters
letters
letters
letters
letters
letters
letters
letters
letters
letters
leave
leave
leave
leave
leave
leave
leave
leave
leave
leave
leave
leave
leave
leave
leave
leave
leave
leave
leave
leave
leave
leave
leave
leave
leave
leave
leave
leave
lay
lay
lay
lay
lay
lay
lay
lay
lay
lay
lay
lay
lay
lay
lay
know
know
know
know
know
know
know
know
know
know
know
know
know
know
know
know
know
know
know
know
know
know
know
know
know
know
know
know
know
know
know
know
know
know
know
know
know
know
know
know
know
know
know
know
know
know
know
know
know
know
know
know
know
know
know
know
know
know
know
know
know
know
know
know
know
know
know
know
know
know
know
know
know
know
know
know
know
know
know
know
know
know
know
know
know
know
know
know
know
know
know
know
know
know
know
know
know
know
know
know
know
know
know
know
know
know
know
know
know
know
know
know
know
know
know
know
know
know
know
knew
knew
knew
knew
knew
knew
knew
[...]
geography
geography
geography
geography
geography
geography
geography
geography
geography
geography
geography
geography
geography
gentlemen
gentlemen
gentlemen
gentlemen
gentlemen
gentlemen
gentlemen
gentlemen
gentlemen
gentlemen
gentlemen
gentlemen
gentlemen
gentlemen
gentlemen
gaps
gaps
gaps
gaps
gaps
gaps
gaps
gaps
gaps
gaps
gaps
gaps
gaps
gaps
future
future
future
future
future
future
future
future
future
future
future
future
future
future
future
future
future
future
future
future
future
future
future
future
future
future
future
future
future
future
future
future
future
future
future
future
future
future
future
future
future
future
future
future
funky
funky
funky
funky
funky
funky
funky
funky
funky
funky
funky
funky
funky
funky
funky
fund
fund
fund
fund
fund
fund
fund
fund
fund
fund
fund
fund
fund
fund
from
from
from
from
from
from
from
from
from
from
from
from
from
from
friends
friends
friends
friends
friends
friends
friends
friends
friends
friends
friends
friends
friends
friends
form
form
form
form
form
form
form
form
form
form
form
form
form
form
for
for
for
for
for
for
for
for
for
for
for
for
for
for
for
for
for
for
for
for
for
for
for
for
for
for
for
for
for
for
for
for
for
for
for
for
for
for
for
for
for
for
for
for
follow
follow
follow
follow
follow
follow
follow
follow
follow
follow
follow
follow
follow
follow
follow
fishing
fishing
fishing
fishing
fishing
fishing
fishing
fishing
fishing
fishing
fishing
fishing
fishing
fishing
few
few
few
few
few
few
few
few
few
few
few
few
few
few
feel
feel
feel
feel
feel
feel
feel
feel
feel
feel
feel
feel
feel
feel
feel
feel
feel
feel
feel
feel
feel
feel
feel
feel
feel
feel
feel
feel
feel
feel
fat
fat
fat
fat
fat
fat
fat
fat
fat
fat
fat
fat
fat
fat
fat
fantasize
fantasize
fantasize
fantasize
fantasize
fantasize
fantasize
fantasize
fantasize
fantasize
fantasize
fantasize
fantasize
fantasize
faded
faded
faded
faded
faded
faded
faded
faded
faded
faded
faded
faded
faded
faded
faded
fabulous
fabulous
fabulous
fabulous
fabulous
fabulous
fabulous
fabulous
fabulous
fabulous
fabulous
fabulous
fabulous
fabulous
fabulous
experience
experience
experience
experience
experience
experience
experience
experience
experience
experience
experience
experience
experience
experience
experience
expect
expect
expect
expect
expect
expect
expect
expect
expect
expect
expect
expect
expect
expect
everybody
everybody
everybody
everybody
everybody
everybody
everybody
everybody
everybody
everybody
everybody
everybody
everybody
everybody
everybody
every
every
every
every
every
every
every
every
every
every
every
every
every
every
every
every
every
every
every
every
every
every
every
every
every
every
every
every
every
every
ever
ever
ever
ever
ever
ever
ever
ever
ever
ever
ever
ever
ever
ever
ever
even
even
even
even
even
even
even
even
even
even
even
even
even
even
even
even
even
even
even
even
even
even
even
even
even
even
even
even
even
even
equation
equation
equation
equation
equation
equation
equation
equation
equation
equation
equation
equation
equation
equation
equation
end
end
end
end
end
end
end
end
end
end
end
end
end
end
end
elses
elses
elses
elses
elses
elses
elses
elses
elses
elses
elses
elses
elses
elses
elses
else
else
else
else
else
else
else
else
else
else
else
else
else
else
elders
elders
elders
elders
elders
elders
elders
elders
elders
elders
elders
elders
elders
elders
elders
elders
elders
elders
elders
elders
elders
elders
elders
elders
elders
elders
elders
elders
either
either
either
either
either
either
either
either
either
either
either
either
either
either
either
either
either
either
either
either
either
either
either
either
either
either
either
either
either
effective
effective
effective
effective
effective
effective
effective
effective
effective
effective
effective
effective
effective
effective
effective
dont
dont
dont
dont
dont
dont
dont
dont
dont
dont
dont
dont
dont
dont
dont
dont
dont
dont
dont
dont
dont
dont
dont
dont
dont
dont
dont
dont
dont
dont
dont
dont
dont
dont
dont
dont
dont
dont
dont
dont
dont
dont
dont
dont
dont
dont
dont
dont
dont
dont
dont
dont
dont
dont
dont
dont
dont
dont
dont
dont
doing
doing
doing
doing
doing
doing
doing
doing
doing
doing
doing
doing
doing
doing
doing
do
do
do
do
do
do
do
do
do
do
do
do
do
do
do
do
do
do
do
do
do
do
do
do
do
do
do
do
do
do
do
do
do
do
do
do
do
do
do
do
do
do
do
do
do
do
do
do
do
do
do
do
do
do
do
do
do
do
do
do
do
do
do
do
do
do
do
do
do
do
do
do
do
do
divorce
divorce
divorce
divorce
divorce
divorce
divorce
divorce
divorce
divorce
divorce
divorce
divorce
divorce
divorce
disposal
disposal
disposal
disposal
disposal
disposal
disposal
disposal
disposal
disposal
disposal
disposal
disposal
disposal
dispense
dispense
dispense
dispense
dispense
dispense
dispense
dispense
dispense
dispense
dispense
dispense
dispense
dispense
dispense
directions
directions
directions
directions
directions
directions
directions
directions
directions
directions
directions
directions
directions
directions
directions
didnt
didnt
didnt
didnt
didnt
didnt
didnt
didnt
didnt
didnt
didnt
didnt
didnt
didnt
didnt
day
day
day
day
day
day
day
day
day
day
day
day
day
day
day
dance
dance
dance
dance
dance
dance
dance
dance
dance
dance
dance
dance
dance
dance
dance
crossed
crossed
crossed
crossed
crossed
crossed
crossed
crossed
crossed
crossed
crossed
crossed
crossed
crossed
crossed
could
could
could
could
could
could
could
could
could
could
could
could
could
could
could
congratulate
congratulate
congratulate
congratulate
congratulate
congratulate
congratulate
congratulate
congratulate
congratulate
congratulate
congratulate
congratulate
congratulate
congratulate
compliments
compliments
compliments
compliments
compliments
compliments
compliments
compliments
compliments
compliments
compliments
compliments
compliments
compliments
compliments
come
come
come
come
come
come
come
come
come
come
come
come
come
come
class
class
class
class
class
class
class
class
class
class
class
class
class
class
class
choices
choices
choices
choices
choices
choices
choices
choices
choices
choices
choices
choices
choices
choices
choices
children
children
children
children
children
children
children
children
children
children
children
children
children
children
children
children
children
children
children
children
children
children
children
children
children
children
children
children
children
chicken
chicken
chicken
chicken
chicken
chicken
chicken
chicken
chicken
chicken
chicken
chicken
chicken
chicken
chicken
chewing
chewing
chewing
chewing
chewing
chewing
chewing
chewing
chewing
chewing
chewing
chewing
chewing
chewing
chewing
chance
chance
chance
chance
chance
chance
chance
chance
chance
chance
chance
chance
chance
chance
chance
certain
certain
certain
certain
certain
certain
certain
certain
certain
certain
certain
certain
certain
certain
careful
careful
careful
careful
careful
careful
careful
careful
careful
careful
careful
careful
careful
careful
cant
cant
cant
cant
cant
cant
cant
cant
cant
cant
cant
cant
cant
cant
cant
can
can
can
can
can
can
can
can
can
can
can
can
can
can
can
calcium
calcium
calcium
calcium
calcium
calcium
calcium
calcium
calcium
calcium
calcium
calcium
calcium
calcium
calcium
by
by
by
by
by
by
by
by
by
by
by
by
by
by
by
by
by
by
by
by
by
by
by
by
by
by
by
by
by
by
by
by
by
by
by
by
by
by
by
by
by
by
by
by
buy
buy
buy
buy
buy
buy
buy
buy
buy
buy
buy
buy
buy
buy
but
but
but
but
but
but
but
but
but
but
but
but
but
but
but
but
but
but
but
but
but
but
but
but
but
but
but
but
but
but
but
but
but
but
but
but
but
but
but
but
but
but
but
but
but
but
but
but
but
but
but
but
but
but
but
but
but
but
but
but
but
but
but
but
but
but
but
but
but
but
but
but
but
but
but
but
but
but
but
but
but
but
but
but
but
but
bubble
bubble
bubble
bubble
bubble
bubble
bubble
bubble
bubble
bubble
bubble
bubble
bubble
bubble
bubble
bridge
bridge
bridge
bridge
bridge
bridge
bridge
bridge
bridge
bridge
bridge
bridge
bridge
bridge
body
body
body
body
body
body
body
body
body
body
body
body
body
body
body
blindside
blindside
blindside
blindside
blindside
blindside
blindside
blindside
blindside
blindside
blindside
blindside
blindside
blindside
blindside
best
best
best
best
best
best
best
best
best
best
best
best
best
best
best
berate
berate
berate
berate
berate
berate
berate
berate
berate
berate
berate
berate
berate
berate
berate
benefits
benefits
benefits
benefits
benefits
benefits
benefits
benefits
benefits
benefits
benefits
benefits
benefits
benefits
benefits
behind
behind
behind
behind
behind
behind
behind
behind
behind
behind
behind
behind
behind
behind
behind
before
before
before
before
before
before
before
before
before
before
before
before
before
before
before
before
before
before
before
before
before
before
before
before
before
before
before
before
before
before
before
before
before
before
before
before
before
before
before
before
before
before
before
been
been
been
been
been
been
been
been
been
been
been
been
been
been
been
because
because
because
because
because
because
because
because
because
because
because
because
because
because
beauty
beauty
beauty
beauty
beauty
beauty
beauty
beauty
beauty
beauty
beauty
beauty
beauty
beauty
beauty
beauty
beauty
beauty
beauty
beauty
beauty
beauty
beauty
beauty
beauty
beauty
beauty
beauty
beauty
beauty
beauty
beauty
beauty
beauty
beauty
beauty
beauty
beauty
beauty
beauty
beauty
beauty
beauty
beauty
beauty
be
be
be
be
be
be
be
be
be
be
be
be
be
be
be
be
be
be
be
be
be
be
be
be
be
be
be
be
be
be
be
be
be
be
be
be
be
be
be
be
be
be
be
be
be
be
be
be
be
be
be
be
be
be
be
be
be
be
be
be
be
be
be
be
be
be
be
be
be
be
be
be
be
be
be
be
be
be
be
be
be
be
be
be
be
be
be
be
be
basis
basis
basis
basis
basis
basis
basis
basis
basis
basis
basis
basis
basis
basis
basis
bank
bank
bank
bank
bank
bank
bank
bank
bank
bank
bank
bank
bank
bank
bank
back
back
back
back
back
back
back
back
back
back
back
back
back
back
back
away
away
away
away
away
away
away
away
away
away
away
away
away
away
away
at
at
at
at
at
at
at
at
at
at
at
at
at
at
at
at
at
at
at
at
at
at
at
at
at
at
at
at
at
at
at
at
at
at
at
at
at
at
at
at
at
at
at
at
at
at
at
at
at
at
at
at
at
at
at
at
at
at
at
at
at
at
at
at
at
at
at
at
at
at
at
at
at
at
at
as
as
as
as
as
as
as
as
as
as
as
as
as
as
as
as
as
as
as
as
as
as
as
as
as
as
as
as
as
as
as
as
as
as
as
as
as
as
as
as
as
as
as
as
as
as
as
as
as
as
as
as
as
as
as
as
as
as
as
as
are
are
are
are
are
are
are
are
are
are
are
are
are
are
are
are
are
are
are
are
are
are
are
are
are
are
are
are
are
are
are
are
are
are
are
are
are
are
are
are
are
are
are
are
are
are
are
are
are
are
are
are
are
are
are
are
are
are
are
are
are
are
are
are
are
are
are
are
are
are
are
are
are
are
are
apt
apt
apt
apt
apt
apt
apt
apt
apt
apt
apt
apt
apt
apt
apt
anyone
anyone
anyone
anyone
anyone
anyone
anyone
anyone
anyone
anyone
anyone
anyone
anyone
anyone
anniversary
anniversary
anniversary
anniversary
anniversary
anniversary
anniversary
anniversary
anniversary
anniversary
anniversary
anniversary
anniversary
anniversary
anniversary
and
and
and
and
and
and
and
and
and
and
and
and
and
and
and
and
and
and
and
and
and
and
and
and
and
and
and
and
and
and
and
and
and
and
and
and
and
and
and
and
and
and
and
and
and
and
and
and
and
and
and
and
and
and
and
and
and
and
and
and
and
and
and
and
and
and
and
and
and
and
and
and
and
and
and
and
and
and
and
and
and
and
and
and
and
and
and
and
and
and
and
and
and
and
and
and
and
and
and
and
and
and
and
and
and
and
and
and
and
and
and
and
and
and
and
and
and
and
and
and
and
and
and
and
and
and
and
and
and
and
and
and
and
and
and
and
and
and
and
and
and
and
and
and
and
and
and
and
and
and
and
and
and
and
and
and
and
and
and
and
and
an
an
an
an
an
an
an
an
an
an
an
an
an
an
an
algebra
algebra
algebra
algebra
algebra
algebra
algebra
algebra
algebra
algebra
algebra
algebra
algebra
algebra
algebra
ahead
ahead
ahead
ahead
ahead
ahead
ahead
ahead
ahead
ahead
ahead
ahead
ahead
ahead
ahead
afraid
afraid
afraid
afraid
afraid
afraid
afraid
afraid
afraid
afraid
afraid
afraid
afraid
afraid
afraid
advice
advice
advice
advice
advice
advice
advice
advice
advice
advice
advice
advice
advice
advice
advice
advice
advice
advice
advice
advice
advice
advice
advice
advice
advice
advice
advice
advice
advice
advice
advice
advice
advice
advice
advice
advice
advice
advice
advice
advice
advice
advice
advice
advice
about
about
about
about
about
about
about
about
about
about
about
about
about
about
about
a
a
a
a
a
a
a
a
a
a
a
a
a
a
a
a
a
a
a
a
a
a
a
a
a
a
a
a
a
a
a
a
a
a
a
a
a
a
a
a
a
a
a
a
a
a
a
a
a
a
a
a
a
a
a
a
a
a
a
a
a
a
a
a
a
a
a
a
a
a
a
a
a
a
a
a
a
a
a
a
a
a
a
a
a
Your
Your
Your
Your
Your
Your
Your
Your
Your
Your
Your
Your
Your
Your
Your
Youll
Youll
Youll
Youll
Youll
Youll
Youll
Youll
Youll
Youll
Youll
Youll
Youll
Youll
Youll
You
You
You
You
You
You
You
You
You
You
You
You
You
You
You
You
You
You
You
You
You
You
You
You
You
You
You
You
You
You
You
You
You
You
You
You
You
You
You
You
You
You
You
You
You
You
You
You
You
You
You
You
You
You
You
You
You
You
You
York
York
York
York
York
York
York
York
York
York
York
York
York
York
Work
Work
Work
Work
Work
Work
Work
Work
Work
Work
Work
Work
Work
Work
Whatever
Whatever
Whatever
Whatever
Whatever
Whatever
Whatever
Whatever
Whatever
Whatever
Whatever
Whatever
Whatever
Whatever
Whatever
Wear
Wear
Wear
Wear
Wear
Wear
Wear
Wear
Wear
Wear
Wear
Wear
Wear
Wear
Wear
Vonneguts
Vonneguts
Vonneguts
Vonneguts
Vonneguts
Vonneguts
Vonneguts
Vonneguts
Vonneguts
Vonneguts
Vonneguts
Vonneguts
Vonneguts
Vonneguts
Vonneguts
Use
Use
Use
Use
Use
Use
Use
Use
Use
Use
Use
Use
Use
Use
Use
Understand
Understand
Understand
Understand
Understand
Understand
Understand
Understand
Understand
Understand
Understand
Understand
Understand
Understand
Tuesday
Tuesday
Tuesday
Tuesday
Tuesday
Tuesday
Tuesday
Tuesday
Tuesday
Tuesday
Tuesday
Tuesday
Tuesday
Tuesday
Tuesday
Travel
Travel
Travel
Travel
Travel
Travel
Travel
Travel
Travel
Travel
Travel
Travel
Travel
Travel
Throw
Throw
Throw
Throw
Throw
Throw
Throw
Throw
Throw
Throw
Throw
Throw
Throw
Throw
Throw
Theyre
Theyre
Theyre
Theyre
Theyre
Theyre
Theyre
Theyre
Theyre
Theyre
Theyre
Theyre
Theyre
Theyre
Theyre
They
They
They
They
They
They
They
They
They
They
They
They
They
They
They
The
The
The
The
The
The
The
The
The
The
The
The
The
The
The
The
The
The
The
The
The
The
The
The
The
The
The
The
The
The
The
The
The
The
The
The
The
The
The
The
The
The
The
The
The
The
The
The
The
The
The
The
The
The
The
The
The
The
The
The
Stretch
Stretch
Stretch
Stretch
Stretch
Stretch
Stretch
Stretch
Stretch
Stretch
Stretch
Stretch
Stretch
Stretch
Stretch
Sometimes
Sometimes
Sometimes
Sometimes
Sometimes
Sometimes
Sometimes
Sometimes
Sometimes
Sometimes
Sometimes
Sometimes
Sometimes
Sometimes
Sometimes
Some
Some
Some
Some
Some
Some
Some
Some
Some
Some
Some
Some
Some
Some
Some
So
So
So
So
So
So
So
So
So
So
So
So
So
So
So
Sing
Sing
Sing
Sing
Sing
Sing
Sing
Sing
Sing
Sing
Sing
Sing
Sing
Sing
Sing
Respect
Respect
Respect
Respect
Respect
Respect
Respect
Respect
Respect
Respect
Respect
Respect
Respect
Respect
Remember
Remember
Remember
Remember
Remember
Remember
Remember
Remember
Remember
Remember
Remember
Remember
Remember
Remember
Remember
Read
Read
Read
Read
Read
Read
Read
Read
Read
Read
Read
Read
Read
Read
Read
Prices
Prices
Prices
Prices
Prices
Prices
Prices
Prices
Prices
Prices
Prices
Prices
Prices
Prices
Politicians
Politicians
Politicians
Politicians
Politicians
Politicians
Politicians
Politicians
Politicians
Politicians
Politicians
Politicians
Politicians
Politicians
Or
Or
Or
Or
Or
Or
Or
Or
Or
Or
Or
Or
Or
Or
Or
Oh
Oh
Oh
Oh
Oh
Oh
Oh
Oh
Oh
Oh
Oh
Oh
Oh
Oh
Oh
Northern
Northern
Northern
Northern
Northern
Northern
Northern
Northern
Northern
Northern
Northern
Northern
Northern
Northern
New
New
New
New
New
New
New
New
New
New
New
New
New
New
Maybe
Maybe
Maybe
Maybe
Maybe
Maybe
Maybe
Maybe
Maybe
Maybe
Maybe
Maybe
Maybe
Maybe
Maybe
Maybe
Maybe
Maybe
Maybe
Maybe
Maybe
Maybe
Maybe
Maybe
Maybe
Maybe
Maybe
Maybe
Maybe
Maybe
Maybe
Maybe
Maybe
Maybe
Maybe
Maybe
Maybe
Maybe
Maybe
Maybe
Maybe
Maybe
Maybe
Maybe
Maybe
Maybe
Maybe
Maybe
Maybe
Maybe
Maybe
Maybe
Maybe
Maybe
Maybe
Maybe
Maybe
Maybe
Maybe
Maybe
Maybe
Maybe
Maybe
Maybe
Maybe
Maybe
Maybe
Maybe
Maybe
Maybe
Maybe
Maybe
Maybe
MIT
MIT
MIT
MIT
MIT
MIT
MIT
MIT
MIT
MIT
MIT
MIT
MIT
MIT
MIT
Live
Live
Live
Live
Live
Live
Live
Live
Live
Live
Live
Live
Live
Live
Live
Live
Live
Live
Live
Live
Live
Live
Live
Live
Live
Live
Live
Live
Ladies
Ladies
Ladies
Ladies
Ladies
Ladies
Ladies
Ladies
Ladies
Ladies
Ladies
Ladies
Ladies
Ladies
Ladies
Kurt
Kurt
Kurt
Kurt
Kurt
Kurt
Kurt
Kurt
Kurt
Kurt
Kurt
Kurt
Kurt
Kurt
Kurt
Keep
Keep
Keep
Keep
Keep
Keep
Keep
Keep
Keep
Keep
Keep
Keep
Keep
Keep
Keep
Its
Its
Its
Its
Its
Its
Its
Its
Its
Its
Its
Its
Its
Its
Its
If
If
If
If
If
If
If
If
If
If
If
If
If
If
If
If
If
If
If
If
If
If
If
If
If
If
If
If
If
If
I
I
I
I
I
I
I
I
I
I
I
I
I
I
I
I
I
I
I
I
I
I
I
I
I
I
I
I
I
I
I
I
I
I
I
I
I
I
I
I
I
I
I
I
I
I
I
I
I
I
I
I
I
I
I
I
I
I
I
I
Get
Get
Get
Get
Get
Get
Get
Get
Get
Get
Get
Get
Get
Get
Get
Get
Get
Get
Get
Get
Get
Get
Get
Get
Get
Get
Get
Get
Get
Get
Forget
Forget
Forget
Forget
Forget
Forget
Forget
Forget
Forget
Forget
Forget
Forget
Forget
Forget
Forget
Floss
Floss
Floss
Floss
Floss
Floss
Floss
Floss
Floss
Floss
Floss
Floss
Floss
Floss
Floss
Enjoy
Enjoy
Enjoy
Enjoy
Enjoy
Enjoy
Enjoy
Enjoy
Enjoy
Enjoy
Enjoy
Enjoy
Enjoy
Enjoy
Enjoy
Enjoy
Enjoy
Enjoy
Enjoy
Enjoy
Enjoy
Enjoy
Enjoy
Enjoy
Enjoy
Enjoy
Enjoy
Enjoy
Enjoy
Enjoy
Dont
Dont
Dont
Dont
Dont
Dont
Dont
Dont
Dont
Dont
Dont
Dont
Dont
Dont
Dont
Dont
Dont
Dont
Dont
Dont
Dont
Dont
Dont
Dont
Dont
Dont
Dont
Dont
Dont
Dont
Dont
Dont
Dont
Dont
Dont
Dont
Dont
Dont
Dont
Dont
Dont
Dont
Dont
Dont
Dont
Dont
Dont
Dont
Dont
Dont
Dont
Dont
Dont
Dont
Dont
Dont
Dont
Dont
Dont
Dont
Dont
Dont
Dont
Dont
Dont
Dont
Dont
Dont
Dont
Dont
Dont
Dont
Dont
Dont
Dont
Dont
Dont
Dont
Dont
Dont
Dont
Dont
Dont
Dont
Dont
Dont
Dont
Dont
Dont
Dont
Dont
Dont
Dont
Dont
Dont
Dont
Dont
Dont
Dont
Dont
Dont
Dont
Dont
Dont
Dont
Dont
Dont
Dont
Dont
Dont
Dont
Dont
Dont
Dont
Dont
Dont
Dont
Dont
Do
Do
Do
Do
Do
Do
Do
Do
Do
Do
Do
Do
Do
Do
Do
Do
Do
Do
Do
Do
Do
Do
Do
Do
Do
Do
Do
Do
Do
Do
Dispensing
Dispensing
Dispensing
Dispensing
Dispensing
Dispensing
Dispensing
Dispensing
Dispensing
Dispensing
Dispensing
Dispensing
Dispensing
Dispensing
Dance
Dance
Dance
Dance
Dance
Dance
Dance
Dance
Dance
Dance
Dance
Dance
Dance
Dance
Dance
Commencement
Commencement
Commencement
Commencement
Commencement
Commencement
Commencement
Commencement
Commencement
Commencement
Commencement
Commencement
Commencement
Commencement
Commencement
City
City
City
City
City
City
City
City
City
City
City
City
City
City
California
California
California
California
California
California
California
California
California
California
California
California
California
California
But
But
But
But
But
But
But
But
But
But
But
But
But
But
But
But
But
But
But
But
But
But
But
But
But
But
But
But
But
But
But
But
But
But
But
But
But
But
But
But
But
But
But
Be
Be
Be
Be
Be
Be
Be
Be
Be
Be
Be
Be
Be
Be
Be
Be
Be
Be
Be
Be
Be
Be
Be
Be
Be
Be
Be
Be
Be
Be
Be
Be
Be
Be
Be
Be
Be
Be
Be
Be
Be
Be
Be
Be
And
And
And
And
And
And
And
And
And
And
And
And
And
And
Advice
Advice
Advice
Advice
Advice
Advice
Advice
Advice
Advice
Advice
Advice
Advice
Advice
Advice
Address
Address
Address
Address
Address
Address
Address
Address
Address
Address
Address
Address
Address
Address
Address
Accept
Accept
Accept
Accept
Accept
Accept
Accept
Accept
Accept
Accept
Accept
Accept
Accept
Accept
97
97
97
97
97
97
97
97
97
97
97
97
97
97
97
85
85
85
85
85
85
85
85
85
85
85
85
85
85
75th
75th
75th
75th
75th
75th
75th
75th
75th
75th
75th
75th
75th
75th
75th
40yearolds
40yearolds
40yearolds
40yearolds
40yearolds
40yearolds
40yearolds
40yearolds
40yearolds
40yearolds
40yearolds
40yearolds
40yearolds
40yearolds
40yearolds
40
40
40
40
40
40
40
40
40
40
40
40
40
40
40
40
40
40
40
40
40
40
40
40
40
40
40
40
40
4
4
4
4
4
4
4
4
4
4
4
4
4
4
4
22
22
22
22
22
22
22
22
22
22
22
22
22
22
22
20
20
20
20
20
20
20
20
20
20
20
20
20
20
20
Exiting @ tick 52522130500 because exiting with last active thread context
