
---------- Begin Simulation Statistics ----------
sim_seconds                                  0.052522                       # Number of seconds simulated
sim_ticks                                 52522130500                       # Number of ticks simulated
final_tick                                52522130500                       # Number of ticks from beginning of simulation (restored from checkpoints and never reset)
sim_freq                                 1000000000000                       # Frequency of simulated ticks
host_inst_rate                                 160049                       # Simulator instruction rate (inst/s)
host_op_rate                                   196745                       # Simulator op (including micro ops) rate (op/s)
host_tick_rate                              549389651                       # Simulator tick rate (ticks/s)
host_mem_usage                                 669856                       # Number of bytes of host memory used
host_seconds                                    95.60                       # Real time elapsed on the host
sim_insts                                    15300803                       # Number of instructions simulated
sim_ops                                      18808946                       # Number of ops (including micro ops) simulated
system.voltage_domain.voltage                       1                       # Voltage in Volts
system.clk_domain.clock                          1000                       # Clock period in ticks
system.mem_ctrls.pwrStateResidencyTicks::UNDEFINED  52522130500                       # Cumulative time (in ticks) in various power states
system.mem_ctrls.bytes_read::.cpu.inst          30752                       # Number of bytes read from this memory
system.mem_ctrls.bytes_read::.cpu.data        5732704                       # Number of bytes read from this memory
system.mem_ctrls.bytes_read::total            5763456                       # Number of bytes read from this memory
system.mem_ctrls.bytes_inst_read::.cpu.inst        30752                       # Number of instructions bytes read from this memory
system.mem_ctrls.bytes_inst_read::total         30752                       # Number of instructions bytes read from this memory
system.mem_ctrls.bytes_written::.writebacks      2625952                       # Number of bytes written to this memory
system.mem_ctrls.bytes_written::total         2625952                       # Number of bytes written to this memory
system.mem_ctrls.num_reads::.cpu.inst             961                       # Number of read requests responded to by this memory
system.mem_ctrls.num_reads::.cpu.data          179147                       # Number of read requests responded to by this memory
system.mem_ctrls.num_reads::total              180108                       # Number of read requests responded to by this memory
system.mem_ctrls.num_writes::.writebacks        82061                       # Number of write requests responded to by this memory
system.mem_ctrls.num_writes::total              82061                       # Number of write requests responded to by this memory
system.mem_ctrls.bw_read::.cpu.inst            585506                       # Total read bandwidth from this memory (bytes/s)
system.mem_ctrls.bw_read::.cpu.data         109148352                       # Total read bandwidth from this memory (bytes/s)
system.mem_ctrls.bw_read::total             109733858                       # Total read bandwidth from this memory (bytes/s)
system.mem_ctrls.bw_inst_read::.cpu.inst       585506                       # Instruction read bandwidth from this memory (bytes/s)
system.mem_ctrls.bw_inst_read::total           585506                       # Instruction read bandwidth from this memory (bytes/s)
system.mem_ctrls.bw_write::.writebacks       49997058                       # Write bandwidth from this memory (bytes/s)
system.mem_ctrls.bw_write::total             49997058                       # Write bandwidth from this memory (bytes/s)
system.mem_ctrls.bw_total::.writebacks       49997058                       # Total bandwidth to/from this memory (bytes/s)
system.mem_ctrls.bw_total::.cpu.inst           585506                       # Total bandwidth to/from this memory (bytes/s)
system.mem_ctrls.bw_total::.cpu.data        109148352                       # Total bandwidth to/from this memory (bytes/s)
system.mem_ctrls.bw_total::total            159730916                       # Total bandwidth to/from this memory (bytes/s)
system.mem_ctrls.avgPriority_.writebacks::samples     74775.00                       # Average QoS priority value for accepted requests
system.mem_ctrls.avgPriority_.cpu.inst::samples       961.00                       # Average QoS priority value for accepted requests
system.mem_ctrls.avgPriority_.cpu.data::samples    177178.00                       # Average QoS priority value for accepted requests
system.mem_ctrls.priorityMinLatency      0.000000018750                       # per QoS priority minimum request to response latency (s)
system.mem_ctrls.priorityMaxLatency      0.019030604500                       # per QoS priority maximum request to response latency (s)
system.mem_ctrls.numReadWriteTurnArounds         4570                       # Number of turnarounds from READ to WRITE
system.mem_ctrls.numWriteReadTurnArounds         4570                       # Number of turnarounds from WRITE to READ
system.mem_ctrls.numStayReadState              444566                       # Number of times bus staying in READ state
system.mem_ctrls.numStayWriteState              70458                       # Number of times bus staying in WRITE state
system.mem_ctrls.readReqs                      180108                       # Number of read requests accepted
system.mem_ctrls.writeReqs                      82061                       # Number of write requests accepted
system.mem_ctrls.readBursts                    180108                       # Number of DRAM read bursts, including those serviced by the write queue
system.mem_ctrls.writeBursts                    82061                       # Number of DRAM write bursts, including those merged in the write queue
system.mem_ctrls.bytesReadDRAM               11400896                       # Total number of bytes read from DRAM
system.mem_ctrls.bytesReadWrQ                  126016                       # Total number of bytes read from write queue
system.mem_ctrls.bytesWritten                 4784192                       # Total number of bytes written to DRAM
system.mem_ctrls.bytesReadSys                 5763456                       # Total read bytes from the system interface side
system.mem_ctrls.bytesWrittenSys              2625952                       # Total written bytes from the system interface side
system.mem_ctrls.servicedByWrQ                   1969                       # Number of DRAM read bursts serviced by the write queue
system.mem_ctrls.mergedWrBursts                  7286                       # Number of DRAM write bursts merged with an existing one
system.mem_ctrls.neitherReadNorWriteReqs            0                       # Number of requests that are neither read nor write
system.mem_ctrls.perBankRdBursts::0              9723                       # Per bank write bursts
system.mem_ctrls.perBankRdBursts::1             12764                       # Per bank write bursts
system.mem_ctrls.perBankRdBursts::2             12016                       # Per bank write bursts
system.mem_ctrls.perBankRdBursts::3             10772                       # Per bank write bursts
system.mem_ctrls.perBankRdBursts::4              9927                       # Per bank write bursts
system.mem_ctrls.perBankRdBursts::5             10097                       # Per bank write bursts
system.mem_ctrls.perBankRdBursts::6             13103                       # Per bank write bursts
system.mem_ctrls.perBankRdBursts::7             13687                       # Per bank write bursts
system.mem_ctrls.perBankRdBursts::8             13204                       # Per bank write bursts
system.mem_ctrls.perBankRdBursts::9             12718                       # Per bank write bursts
system.mem_ctrls.perBankRdBursts::10            12673                       # Per bank write bursts
system.mem_ctrls.perBankRdBursts::11             9043                       # Per bank write bursts
system.mem_ctrls.perBankRdBursts::12             9527                       # Per bank write bursts
system.mem_ctrls.perBankRdBursts::13             9594                       # Per bank write bursts
system.mem_ctrls.perBankRdBursts::14             9417                       # Per bank write bursts
system.mem_ctrls.perBankRdBursts::15             9874                       # Per bank write bursts
system.mem_ctrls.perBankWrBursts::0              3611                       # Per bank write bursts
system.mem_ctrls.perBankWrBursts::1              5382                       # Per bank write bursts
system.mem_ctrls.perBankWrBursts::2              4644                       # Per bank write bursts
system.mem_ctrls.perBankWrBursts::3              4089                       # Per bank write bursts
system.mem_ctrls.perBankWrBursts::4              3822                       # Per bank write bursts
system.mem_ctrls.perBankWrBursts::5              3810                       # Per bank write bursts
system.mem_ctrls.perBankWrBursts::6              5936                       # Per bank write bursts
system.mem_ctrls.perBankWrBursts::7              6454                       # Per bank write bursts
system.mem_ctrls.perBankWrBursts::8              6426                       # Per bank write bursts
system.mem_ctrls.perBankWrBursts::9              6161                       # Per bank write bursts
system.mem_ctrls.perBankWrBursts::10             6309                       # Per bank write bursts
system.mem_ctrls.perBankWrBursts::11             3574                       # Per bank write bursts
system.mem_ctrls.perBankWrBursts::12             3652                       # Per bank write bursts
system.mem_ctrls.perBankWrBursts::13             3630                       # Per bank write bursts
system.mem_ctrls.perBankWrBursts::14             3624                       # Per bank write bursts
system.mem_ctrls.perBankWrBursts::15             3629                       # Per bank write bursts
system.mem_ctrls.numRdRetry                         0                       # Number of times read queue was full causing retry
system.mem_ctrls.numWrRetry                         0                       # Number of times write queue was full causing retry
system.mem_ctrls.totGap                   52522033500                       # Total gap between requests
system.mem_ctrls.readPktSize::0                     0                       # Read request sizes (log2)
system.mem_ctrls.readPktSize::1                     0                       # Read request sizes (log2)
system.mem_ctrls.readPktSize::2                     0                       # Read request sizes (log2)
system.mem_ctrls.readPktSize::3                     0                       # Read request sizes (log2)
system.mem_ctrls.readPktSize::4                     0                       # Read request sizes (log2)
system.mem_ctrls.readPktSize::5                180108                       # Read request sizes (log2)
system.mem_ctrls.readPktSize::6                     0                       # Read request sizes (log2)
system.mem_ctrls.writePktSize::0                    0                       # Write request sizes (log2)
system.mem_ctrls.writePktSize::1                    0                       # Write request sizes (log2)
system.mem_ctrls.writePktSize::2                    0                       # Write request sizes (log2)
system.mem_ctrls.writePktSize::3                    0                       # Write request sizes (log2)
system.mem_ctrls.writePktSize::4                    0                       # Write request sizes (log2)
system.mem_ctrls.writePktSize::5                82061                       # Write request sizes (log2)
system.mem_ctrls.writePktSize::6                    0                       # Write request sizes (log2)
system.mem_ctrls.rdQLenPdf::0                  178138                       # What read queue length does an incoming req see
system.mem_ctrls.rdQLenPdf::1                       1                       # What read queue length does an incoming req see
system.mem_ctrls.rdQLenPdf::2                       0                       # What read queue length does an incoming req see
system.mem_ctrls.rdQLenPdf::3                       0                       # What read queue length does an incoming req see
system.mem_ctrls.rdQLenPdf::4                       0                       # What read queue length does an incoming req see
system.mem_ctrls.rdQLenPdf::5                       0                       # What read queue length does an incoming req see
system.mem_ctrls.rdQLenPdf::6                       0                       # What read queue length does an incoming req see
system.mem_ctrls.rdQLenPdf::7                       0                       # What read queue length does an incoming req see
system.mem_ctrls.rdQLenPdf::8                       0                       # What read queue length does an incoming req see
system.mem_ctrls.rdQLenPdf::9                       0                       # What read queue length does an incoming req see
system.mem_ctrls.rdQLenPdf::10                      0                       # What read queue length does an incoming req see
system.mem_ctrls.rdQLenPdf::11                      0                       # What read queue length does an incoming req see
system.mem_ctrls.rdQLenPdf::12                      0                       # What read queue length does an incoming req see
system.mem_ctrls.rdQLenPdf::13                      0                       # What read queue length does an incoming req see
system.mem_ctrls.rdQLenPdf::14                      0                       # What read queue length does an incoming req see
system.mem_ctrls.rdQLenPdf::15                      0                       # What read queue length does an incoming req see
system.mem_ctrls.rdQLenPdf::16                      0                       # What read queue length does an incoming req see
system.mem_ctrls.rdQLenPdf::17                      0                       # What read queue length does an incoming req see
system.mem_ctrls.rdQLenPdf::18                      0                       # What read queue length does an incoming req see
system.mem_ctrls.rdQLenPdf::19                      0                       # What read queue length does an incoming req see
system.mem_ctrls.rdQLenPdf::20                      0                       # What read queue length does an incoming req see
system.mem_ctrls.rdQLenPdf::21                      0                       # What read queue length does an incoming req see
system.mem_ctrls.rdQLenPdf::22                      0                       # What read queue length does an incoming req see
system.mem_ctrls.rdQLenPdf::23                      0                       # What read queue length does an incoming req see
system.mem_ctrls.rdQLenPdf::24                      0                       # What read queue length does an incoming req see
system.mem_ctrls.rdQLenPdf::25                      0                       # What read queue length does an incoming req see
system.mem_ctrls.rdQLenPdf::26                      0                       # What read queue length does an incoming req see
system.mem_ctrls.rdQLenPdf::27                      0                       # What read queue length does an incoming req see
system.mem_ctrls.rdQLenPdf::28                      0                       # What read queue length does an incoming req see
system.mem_ctrls.rdQLenPdf::29                      0                       # What read queue length does an incoming req see
system.mem_ctrls.rdQLenPdf::30                      0                       # What read queue length does an incoming req see
system.mem_ctrls.rdQLenPdf::31                      0                       # What read queue length does an incoming req see
system.mem_ctrls.wrQLenPdf::0                       1                       # What write queue length does an incoming req see
system.mem_ctrls.wrQLenPdf::1                       1                       # What write queue length does an incoming req see
system.mem_ctrls.wrQLenPdf::2                       1                       # What write queue length does an incoming req see
system.mem_ctrls.wrQLenPdf::3                       1                       # What write queue length does an incoming req see
system.mem_ctrls.wrQLenPdf::4                       1                       # What write queue length does an incoming req see
system.mem_ctrls.wrQLenPdf::5                       1                       # What write queue length does an incoming req see
system.mem_ctrls.wrQLenPdf::6                       1                       # What write queue length does an incoming req see
system.mem_ctrls.wrQLenPdf::7                       1                       # What write queue length does an incoming req see
system.mem_ctrls.wrQLenPdf::8                       1                       # What write queue length does an incoming req see
system.mem_ctrls.wrQLenPdf::9                       1                       # What write queue length does an incoming req see
system.mem_ctrls.wrQLenPdf::10                      1                       # What write queue length does an incoming req see
system.mem_ctrls.wrQLenPdf::11                      1                       # What write queue length does an incoming req see
system.mem_ctrls.wrQLenPdf::12                      1                       # What write queue length does an incoming req see
system.mem_ctrls.wrQLenPdf::13                      1                       # What write queue length does an incoming req see
system.mem_ctrls.wrQLenPdf::14                      1                       # What write queue length does an incoming req see
system.mem_ctrls.wrQLenPdf::15                    706                       # What write queue length does an incoming req see
system.mem_ctrls.wrQLenPdf::16                    927                       # What write queue length does an incoming req see
system.mem_ctrls.wrQLenPdf::17                   4567                       # What write queue length does an incoming req see
system.mem_ctrls.wrQLenPdf::18                   4572                       # What write queue length does an incoming req see
system.mem_ctrls.wrQLenPdf::19                   4571                       # What write queue length does an incoming req see
system.mem_ctrls.wrQLenPdf::20                   4571                       # What write queue length does an incoming req see
system.mem_ctrls.wrQLenPdf::21                   4571                       # What write queue length does an incoming req see
system.mem_ctrls.wrQLenPdf::22                   4570                       # What write queue length does an incoming req see
system.mem_ctrls.wrQLenPdf::23                   4570                       # What write queue length does an incoming req see
system.mem_ctrls.wrQLenPdf::24                   4570                       # What write queue length does an incoming req see
system.mem_ctrls.wrQLenPdf::25                   4571                       # What write queue length does an incoming req see
system.mem_ctrls.wrQLenPdf::26                   4570                       # What write queue length does an incoming req see
system.mem_ctrls.wrQLenPdf::27                   4570                       # What write queue length does an incoming req see
system.mem_ctrls.wrQLenPdf::28                   4570                       # What write queue length does an incoming req see
system.mem_ctrls.wrQLenPdf::29                   4574                       # What write queue length does an incoming req see
system.mem_ctrls.wrQLenPdf::30                   4570                       # What write queue length does an incoming req see
system.mem_ctrls.wrQLenPdf::31                   4570                       # What write queue length does an incoming req see
system.mem_ctrls.wrQLenPdf::32                   4570                       # What write queue length does an incoming req see
system.mem_ctrls.wrQLenPdf::33                      0                       # What write queue length does an incoming req see
system.mem_ctrls.wrQLenPdf::34                      0                       # What write queue length does an incoming req see
system.mem_ctrls.wrQLenPdf::35                      0                       # What write queue length does an incoming req see
system.mem_ctrls.wrQLenPdf::36                      0                       # What write queue length does an incoming req see
system.mem_ctrls.wrQLenPdf::37                      0                       # What write queue length does an incoming req see
system.mem_ctrls.wrQLenPdf::38                      0                       # What write queue length does an incoming req see
system.mem_ctrls.wrQLenPdf::39                      0                       # What write queue length does an incoming req see
system.mem_ctrls.wrQLenPdf::40                      0                       # What write queue length does an incoming req see
system.mem_ctrls.wrQLenPdf::41                      0                       # What write queue length does an incoming req see
system.mem_ctrls.wrQLenPdf::42                      0                       # What write queue length does an incoming req see
system.mem_ctrls.wrQLenPdf::43                      0                       # What write queue length does an incoming req see
system.mem_ctrls.wrQLenPdf::44                      0                       # What write queue length does an incoming req see
system.mem_ctrls.wrQLenPdf::45                      0                       # What write queue length does an incoming req see
system.mem_ctrls.wrQLenPdf::46                      0                       # What write queue length does an incoming req see
system.mem_ctrls.wrQLenPdf::47                      0                       # What write queue length does an incoming req see
system.mem_ctrls.wrQLenPdf::48                      0                       # What write queue length does an incoming req see
system.mem_ctrls.wrQLenPdf::49                      0                       # What write queue length does an incoming req see
system.mem_ctrls.wrQLenPdf::50                      0                       # What write queue length does an incoming req see
system.mem_ctrls.wrQLenPdf::51                      0                       # What write queue length does an incoming req see
system.mem_ctrls.wrQLenPdf::52                      0                       # What write queue length does an incoming req see
system.mem_ctrls.wrQLenPdf::53                      0                       # What write queue length does an incoming req see
system.mem_ctrls.wrQLenPdf::54                      0                       # What write queue length does an incoming req see
system.mem_ctrls.wrQLenPdf::55                      0                       # What write queue length does an incoming req see
system.mem_ctrls.wrQLenPdf::56                      0                       # What write queue length does an incoming req see
system.mem_ctrls.wrQLenPdf::57                      0                       # What write queue length does an incoming req see
system.mem_ctrls.wrQLenPdf::58                      0                       # What write queue length does an incoming req see
system.mem_ctrls.wrQLenPdf::59                      0                       # What write queue length does an incoming req see
system.mem_ctrls.wrQLenPdf::60                      0                       # What write queue length does an incoming req see
system.mem_ctrls.wrQLenPdf::61                      0                       # What write queue length does an incoming req see
system.mem_ctrls.wrQLenPdf::62                      0                       # What write queue length does an incoming req see
system.mem_ctrls.wrQLenPdf::63                      0                       # What write queue length does an incoming req see
system.mem_ctrls.bytesPerActivate::samples        98494                       # Bytes accessed per row activation
system.mem_ctrls.bytesPerActivate::mean    164.308080                       # Bytes accessed per row activation
system.mem_ctrls.bytesPerActivate::gmean   117.017495                       # Bytes accessed per row activation
system.mem_ctrls.bytesPerActivate::stdev   175.987464                       # Bytes accessed per row activation
system.mem_ctrls.bytesPerActivate::0-127        51274     52.06%     52.06% # Bytes accessed per row activation
system.mem_ctrls.bytesPerActivate::128-255        25192     25.58%     77.64% # Bytes accessed per row activation
system.mem_ctrls.bytesPerActivate::256-383        14098     14.31%     91.95% # Bytes accessed per row activation
system.mem_ctrls.bytesPerActivate::384-511         2662      2.70%     94.65% # Bytes accessed per row activation
system.mem_ctrls.bytesPerActivate::512-639         1960      1.99%     96.64% # Bytes accessed per row activation
system.mem_ctrls.bytesPerActivate::640-767          838      0.85%     97.49% # Bytes accessed per row activation
system.mem_ctrls.bytesPerActivate::768-895          478      0.49%     97.98% # Bytes accessed per row activation
system.mem_ctrls.bytesPerActivate::896-1023          347      0.35%     98.33% # Bytes accessed per row activation
system.mem_ctrls.bytesPerActivate::1024-1151         1645      1.67%    100.00% # Bytes accessed per row activation
system.mem_ctrls.bytesPerActivate::total        98494                       # Bytes accessed per row activation
system.mem_ctrls.rdPerTurnAround::samples         4570                       # Reads before turning the bus around for writes
system.mem_ctrls.rdPerTurnAround::mean      38.891028                       # Reads before turning the bus around for writes
system.mem_ctrls.rdPerTurnAround::gmean     21.896889                       # Reads before turning the bus around for writes
system.mem_ctrls.rdPerTurnAround::stdev    167.017687                       # Reads before turning the bus around for writes
system.mem_ctrls.rdPerTurnAround::0-511          4538     99.30%     99.30% # Reads before turning the bus around for writes
system.mem_ctrls.rdPerTurnAround::512-1023           26      0.57%     99.87% # Reads before turning the bus around for writes
system.mem_ctrls.rdPerTurnAround::1024-1535            5      0.11%     99.98% # Reads before turning the bus around for writes
system.mem_ctrls.rdPerTurnAround::9728-10239            1      0.02%    100.00% # Reads before turning the bus around for writes
system.mem_ctrls.rdPerTurnAround::total          4570                       # Reads before turning the bus around for writes
system.mem_ctrls.wrPerTurnAround::samples         4570                       # Writes before turning the bus around for reads
system.mem_ctrls.wrPerTurnAround::mean      16.357330                       # Writes before turning the bus around for reads
system.mem_ctrls.wrPerTurnAround::gmean     16.341579                       # Writes before turning the bus around for reads
system.mem_ctrls.wrPerTurnAround::stdev      0.735475                       # Writes before turning the bus around for reads
system.mem_ctrls.wrPerTurnAround::16             3645     79.76%     79.76% # Writes before turning the bus around for reads
system.mem_ctrls.wrPerTurnAround::17              220      4.81%     84.57% # Writes before turning the bus around for reads
system.mem_ctrls.wrPerTurnAround::18              702     15.36%     99.93% # Writes before turning the bus around for reads
system.mem_ctrls.wrPerTurnAround::19                3      0.07%    100.00% # Writes before turning the bus around for reads
system.mem_ctrls.wrPerTurnAround::total          4570                       # Writes before turning the bus around for reads
system.mem_ctrls.masterReadBytes::.cpu.inst        30752                       # Per-master bytes read from memory
system.mem_ctrls.masterReadBytes::.cpu.data      5669696                       # Per-master bytes read from memory
system.mem_ctrls.masterWriteBytes::.writebacks      2392096                       # Per-master bytes write to memory
system.mem_ctrls.masterReadRate::.cpu.inst 585505.570837420644                       # Per-master bytes read from memory rate (Bytes/sec)
system.mem_ctrls.masterReadRate::.cpu.data 107948705.546131640673                       # Per-master bytes read from memory rate (Bytes/sec)
system.mem_ctrls.masterWriteRate::.writebacks 45544534.793766602874                       # Per-master bytes write to memory rate (Bytes/sec)
system.mem_ctrls.masterReadAccesses::.cpu.inst          961                       # Per-master read serviced memory accesses
system.mem_ctrls.masterReadAccesses::.cpu.data       179147                       # Per-master read serviced memory accesses
system.mem_ctrls.masterWriteAccesses::.writebacks        82061                       # Per-master write serviced memory accesses
system.mem_ctrls.masterReadTotalLat::.cpu.inst     33940000                       # Per-master read total memory access latency
system.mem_ctrls.masterReadTotalLat::.cpu.data   6775009500                       # Per-master read total memory access latency
system.mem_ctrls.masterWriteTotalLat::.writebacks 1201589773000                       # Per-master write total memory access latency
system.mem_ctrls.masterReadAvgLat::.cpu.inst     35317.38                       # Per-master read average memory access latency
system.mem_ctrls.masterReadAvgLat::.cpu.data     37818.16                       # Per-master read average memory access latency
system.mem_ctrls.masterWriteAvgLat::.writebacks  14642641.12                       # Per-master write average memory access latency
system.mem_ctrls.totQLat                   3468843250                       # Total ticks spent queuing
system.mem_ctrls.totMemAccLat              6808949500                       # Total ticks spent from burst creation until serviced by the DRAM
system.mem_ctrls.totBusLat                  890695000                       # Total ticks spent in databus transfers
system.mem_ctrls.avgQLat                     19472.68                       # Average queueing delay per DRAM burst
system.mem_ctrls.avgBusLat                    5000.00                       # Average bus latency per DRAM burst
system.mem_ctrls.avgMemAccLat                38222.68                       # Average memory access latency per DRAM burst
system.mem_ctrls.avgRdBW                       217.07                       # Average DRAM read bandwidth in MiByte/s
system.mem_ctrls.avgWrBW                        91.09                       # Average achieved write bandwidth in MiByte/s
system.mem_ctrls.avgRdBWSys                    109.73                       # Average system read bandwidth in MiByte/s
system.mem_ctrls.avgWrBWSys                     50.00                       # Average system write bandwidth in MiByte/s
system.mem_ctrls.peakBW                      12800.00                       # Theoretical peak bandwidth in MiByte/s
system.mem_ctrls.busUtil                         2.41                       # Data bus utilization in percentage
system.mem_ctrls.busUtilRead                     1.70                       # Data bus utilization in percentage for reads
system.mem_ctrls.busUtilWrite                    0.71                       # Data bus utilization in percentage for writes
system.mem_ctrls.avgRdQLen                       1.00                       # Average read queue length when enqueuing
system.mem_ctrls.avgWrQLen                      26.11                       # Average write queue length when enqueuing
system.mem_ctrls.readRowHits                   115796                       # Number of row buffer hits during reads
system.mem_ctrls.writeRowHits                   38596                       # Number of row buffer hits during writes
system.mem_ctrls.readRowHitRate                 65.00                       # Row buffer hit rate for reads
system.mem_ctrls.writeRowHitRate                51.62                       # Row buffer hit rate for writes
system.mem_ctrls.avgGap                     200336.55                       # Average gap between requests
system.mem_ctrls.pageHitRate                    61.05                       # Row buffer hit rate, read and write combined
system.mem_ctrls_0.actEnergy                357064260                       # Energy for activate commands per rank (pJ)
system.mem_ctrls_0.preEnergy                189776565                       # Energy for precharge commands per rank (pJ)
system.mem_ctrls_0.readEnergy               657515460                       # Energy for read commands per rank (pJ)
system.mem_ctrls_0.writeEnergy              197044560                       # Energy for write commands per rank (pJ)
system.mem_ctrls_0.refreshEnergy         3174000960.000000                       # Energy for refresh commands per rank (pJ)
system.mem_ctrls_0.actBackEnergy           3075344940                       # Energy for active background per rank (pJ)
system.mem_ctrls_0.preBackEnergy            108428640                       # Energy for precharge background per rank (pJ)
system.mem_ctrls_0.actPowerDownEnergy     13035463380                       # Energy for active power-down per rank (pJ)
system.mem_ctrls_0.prePowerDownEnergy      1805698080                       # Energy for precharge power-down per rank (pJ)
system.mem_ctrls_0.selfRefreshEnergy       3143878620                       # Energy for self refresh per rank (pJ)
system.mem_ctrls_0.totalEnergy            25745010825                       # Total energy per rank (pJ)
system.mem_ctrls_0.averagePower            490.174534                       # Core power per rank (mW)
system.mem_ctrls_0.totalIdleTime          45493188500                       # Total Idle time Per DRAM Rank
system.mem_ctrls_0.memoryStateTime::IDLE    138669250                       # Time in different power states
system.mem_ctrls_0.memoryStateTime::REF    1342640000                       # Time in different power states
system.mem_ctrls_0.memoryStateTime::SREF  12204952250                       # Time in different power states
system.mem_ctrls_0.memoryStateTime::PRE_PDN   4702212750                       # Time in different power states
system.mem_ctrls_0.memoryStateTime::ACT    5546887000                       # Time in different power states
system.mem_ctrls_0.memoryStateTime::ACT_PDN  28586769250                       # Time in different power states
system.mem_ctrls_1.actEnergy                346225740                       # Energy for activate commands per rank (pJ)
system.mem_ctrls_1.preEnergy                184008165                       # Energy for precharge commands per rank (pJ)
system.mem_ctrls_1.readEnergy               614397000                       # Energy for read commands per rank (pJ)
system.mem_ctrls_1.writeEnergy              193166100                       # Energy for write commands per rank (pJ)
system.mem_ctrls_1.refreshEnergy         3238538160.000000                       # Energy for refresh commands per rank (pJ)
system.mem_ctrls_1.actBackEnergy           2920003410                       # Energy for active background per rank (pJ)
system.mem_ctrls_1.preBackEnergy            107153280                       # Energy for precharge background per rank (pJ)
system.mem_ctrls_1.actPowerDownEnergy     13365919170                       # Energy for active power-down per rank (pJ)
system.mem_ctrls_1.prePowerDownEnergy      1973616000                       # Energy for precharge power-down per rank (pJ)
system.mem_ctrls_1.selfRefreshEnergy       2938725780                       # Energy for self refresh per rank (pJ)
system.mem_ctrls_1.totalEnergy            25882263435                       # Total energy per rank (pJ)
system.mem_ctrls_1.averagePower            492.787768                       # Core power per rank (mW)
system.mem_ctrls_1.totalIdleTime          45837552250                       # Total Idle time Per DRAM Rank
system.mem_ctrls_1.memoryStateTime::IDLE    131697000                       # Time in different power states
system.mem_ctrls_1.memoryStateTime::REF    1369940000                       # Time in different power states
system.mem_ctrls_1.memoryStateTime::SREF  11387590000                       # Time in different power states
system.mem_ctrls_1.memoryStateTime::PRE_PDN   5139603000                       # Time in different power states
system.mem_ctrls_1.memoryStateTime::ACT    5182894250                       # Time in different power states
system.mem_ctrls_1.memoryStateTime::ACT_PDN  29310406250                       # Time in different power states
system.pwrStateResidencyTicks::UNDEFINED  52522130500                       # Cumulative time (in ticks) in various power states
system.cpu_voltage_domain.voltage                   1                       # Voltage in Volts
system.cpu_clk_domain.clock                       500                       # Clock period in ticks
system.cpu.dstage2_mmu.stage2_tlb.walker.pwrStateResidencyTicks::UNDEFINED  52522130500                       # Cumulative time (in ticks) in various power states
system.cpu.dstage2_mmu.stage2_tlb.walker.walks            0                       # Table walker walks requested
system.cpu.dstage2_mmu.stage2_tlb.walker.walkRequestOrigin_Requested::Data            0                       # Table walker requests started/completed, data/inst
system.cpu.dstage2_mmu.stage2_tlb.walker.walkRequestOrigin_Requested::Inst            0                       # Table walker requests started/completed, data/inst
system.cpu.dstage2_mmu.stage2_tlb.walker.walkRequestOrigin_Requested::total            0                       # Table walker requests started/completed, data/inst
system.cpu.dstage2_mmu.stage2_tlb.walker.walkRequestOrigin_Completed::Data            0                       # Table walker requests started/completed, data/inst
system.cpu.dstage2_mmu.stage2_tlb.walker.walkRequestOrigin_Completed::Inst            0                       # Table walker requests started/completed, data/inst
system.cpu.dstage2_mmu.stage2_tlb.walker.walkRequestOrigin_Completed::total            0                       # Table walker requests started/completed, data/inst
system.cpu.dstage2_mmu.stage2_tlb.walker.walkRequestOrigin::total            0                       # Table walker requests started/completed, data/inst
system.cpu.dstage2_mmu.stage2_tlb.inst_hits            0                       # ITB inst hits
system.cpu.dstage2_mmu.stage2_tlb.inst_misses            0                       # ITB inst misses
system.cpu.dstage2_mmu.stage2_tlb.read_hits            0                       # DTB read hits
system.cpu.dstage2_mmu.stage2_tlb.read_misses            0                       # DTB read misses
system.cpu.dstage2_mmu.stage2_tlb.write_hits            0                       # DTB write hits
system.cpu.dstage2_mmu.stage2_tlb.write_misses            0                       # DTB write misses
system.cpu.dstage2_mmu.stage2_tlb.flush_tlb            0                       # Number of times complete TLB was flushed
system.cpu.dstage2_mmu.stage2_tlb.flush_tlb_mva            0                       # Number of times TLB was flushed by MVA
system.cpu.dstage2_mmu.stage2_tlb.flush_tlb_mva_asid            0                       # Number of times TLB was flushed by MVA & ASID
system.cpu.dstage2_mmu.stage2_tlb.flush_tlb_asid            0                       # Number of times TLB was flushed by ASID
system.cpu.dstage2_mmu.stage2_tlb.flush_entries            0                       # Number of entries that have been flushed from TLB
system.cpu.dstage2_mmu.stage2_tlb.align_faults            0                       # Number of TLB faults due to alignment restrictions
system.cpu.dstage2_mmu.stage2_tlb.prefetch_faults            0                       # Number of TLB faults due to prefetch
system.cpu.dstage2_mmu.stage2_tlb.domain_faults            0                       # Number of TLB faults due to domain restrictions
system.cpu.dstage2_mmu.stage2_tlb.perms_faults            0                       # Number of TLB faults due to permissions restrictions
system.cpu.dstage2_mmu.stage2_tlb.read_accesses            0                       # DTB read accesses
system.cpu.dstage2_mmu.stage2_tlb.write_accesses            0                       # DTB write accesses
system.cpu.dstage2_mmu.stage2_tlb.inst_accesses            0                       # ITB inst accesses
system.cpu.dstage2_mmu.stage2_tlb.hits              0                       # DTB hits
system.cpu.dstage2_mmu.stage2_tlb.misses            0                       # DTB misses
system.cpu.dstage2_mmu.stage2_tlb.accesses            0                       # DTB accesses
system.cpu.dtb.walker.pwrStateResidencyTicks::UNDEFINED  52522130500                       # Cumulative time (in ticks) in various power states
system.cpu.dtb.walker.walks                         0                       # Table walker walks requested
system.cpu.dtb.walker.walkRequestOrigin_Requested::Data            0                       # Table walker requests started/completed, data/inst
system.cpu.dtb.walker.walkRequestOrigin_Requested::Inst            0                       # Table walker requests started/completed, data/inst
system.cpu.dtb.walker.walkRequestOrigin_Requested::total            0                       # Table walker requests started/completed, data/inst
system.cpu.dtb.walker.walkRequestOrigin_Completed::Data            0                       # Table walker requests started/completed, data/inst
system.cpu.dtb.walker.walkRequestOrigin_Completed::Inst            0                       # Table walker requests started/completed, data/inst
system.cpu.dtb.walker.walkRequestOrigin_Completed::total            0                       # Table walker requests started/completed, data/inst
system.cpu.dtb.walker.walkRequestOrigin::total            0                       # Table walker requests started/completed, data/inst
system.cpu.dtb.inst_hits                            0                       # ITB inst hits
system.cpu.dtb.inst_misses                          0                       # ITB inst misses
system.cpu.dtb.read_hits                            0                       # DTB read hits
system.cpu.dtb.read_misses                          0                       # DTB read misses
system.cpu.dtb.write_hits                           0                       # DTB write hits
system.cpu.dtb.write_misses                         0                       # DTB write misses
system.cpu.dtb.flush_tlb                            0                       # Number of times complete TLB was flushed
system.cpu.dtb.flush_tlb_mva                        0                       # Number of times TLB was flushed by MVA
system.cpu.dtb.flush_tlb_mva_asid                   0                       # Number of times TLB was flushed by MVA & ASID
system.cpu.dtb.flush_tlb_asid                       0                       # Number of times TLB was flushed by ASID
system.cpu.dtb.flush_entries                        0                       # Number of entries that have been flushed from TLB
system.cpu.dtb.align_faults                         0                       # Number of TLB faults due to alignment restrictions
system.cpu.dtb.prefetch_faults                      0                       # Number of TLB faults due to prefetch
system.cpu.dtb.domain_faults                        0                       # Number of TLB faults due to domain restrictions
system.cpu.dtb.perms_faults                         0                       # Number of TLB faults due to permissions restrictions
system.cpu.dtb.read_accesses                        0                       # DTB read accesses
system.cpu.dtb.write_accesses                       0                       # DTB write accesses
system.cpu.dtb.inst_accesses                        0                       # ITB inst accesses
system.cpu.dtb.hits                                 0                       # DTB hits
system.cpu.dtb.misses                               0                       # DTB misses
system.cpu.dtb.accesses                             0                       # DTB accesses
system.cpu.istage2_mmu.stage2_tlb.walker.pwrStateResidencyTicks::UNDEFINED  52522130500                       # Cumulative time (in ticks) in various power states
system.cpu.istage2_mmu.stage2_tlb.walker.walks            0                       # Table walker walks requested
system.cpu.istage2_mmu.stage2_tlb.walker.walkRequestOrigin_Requested::Data            0                       # Table walker requests started/completed, data/inst
system.cpu.istage2_mmu.stage2_tlb.walker.walkRequestOrigin_Requested::Inst            0                       # Table walker requests started/completed, data/inst
system.cpu.istage2_mmu.stage2_tlb.walker.walkRequestOrigin_Requested::total            0                       # Table walker requests started/completed, data/inst
system.cpu.istage2_mmu.stage2_tlb.walker.walkRequestOrigin_Completed::Data            0                       # Table walker requests started/completed, data/inst
system.cpu.istage2_mmu.stage2_tlb.walker.walkRequestOrigin_Completed::Inst            0                       # Table walker requests started/completed, data/inst
system.cpu.istage2_mmu.stage2_tlb.walker.walkRequestOrigin_Completed::total            0                       # Table walker requests started/completed, data/inst
system.cpu.istage2_mmu.stage2_tlb.walker.walkRequestOrigin::total            0                       # Table walker requests started/completed, data/inst
system.cpu.istage2_mmu.stage2_tlb.inst_hits            0                       # ITB inst hits
system.cpu.istage2_mmu.stage2_tlb.inst_misses            0                       # ITB inst misses
system.cpu.istage2_mmu.stage2_tlb.read_hits            0                       # DTB read hits
system.cpu.istage2_mmu.stage2_tlb.read_misses            0                       # DTB read misses
system.cpu.istage2_mmu.stage2_tlb.write_hits            0                       # DTB write hits
system.cpu.istage2_mmu.stage2_tlb.write_misses            0                       # DTB write misses
system.cpu.istage2_mmu.stage2_tlb.flush_tlb            0                       # Number of times complete TLB was flushed
system.cpu.istage2_mmu.stage2_tlb.flush_tlb_mva            0                       # Number of times TLB was flushed by MVA
system.cpu.istage2_mmu.stage2_tlb.flush_tlb_mva_asid            0                       # Number of times TLB was flushed by MVA & ASID
system.cpu.istage2_mmu.stage2_tlb.flush_tlb_asid            0                       # Number of times TLB was flushed by ASID
system.cpu.istage2_mmu.stage2_tlb.flush_entries            0                       # Number of entries that have been flushed from TLB
system.cpu.istage2_mmu.stage2_tlb.align_faults            0                       # Number of TLB faults due to alignment restrictions
system.cpu.istage2_mmu.stage2_tlb.prefetch_faults            0                       # Number of TLB faults due to prefetch
system.cpu.istage2_mmu.stage2_tlb.domain_faults            0                       # Number of TLB faults due to domain restrictions
system.cpu.istage2_mmu.stage2_tlb.perms_faults            0                       # Number of TLB faults due to permissions restrictions
system.cpu.istage2_mmu.stage2_tlb.read_accesses            0                       # DTB read accesses
system.cpu.istage2_mmu.stage2_tlb.write_accesses            0                       # DTB write accesses
system.cpu.istage2_mmu.stage2_tlb.inst_accesses            0                       # ITB inst accesses
system.cpu.istage2_mmu.stage2_tlb.hits              0                       # DTB hits
system.cpu.istage2_mmu.stage2_tlb.misses            0                       # DTB misses
system.cpu.istage2_mmu.stage2_tlb.accesses            0                       # DTB accesses
system.cpu.itb.walker.pwrStateResidencyTicks::UNDEFINED  52522130500                       # Cumulative time (in ticks) in various power states
system.cpu.itb.walker.walks                         0                       # Table walker walks requested
system.cpu.itb.walker.walkRequestOrigin_Requested::Data            0                       # Table walker requests started/completed, data/inst
system.cpu.itb.walker.walkRequestOrigin_Requested::Inst            0                       # Table walker requests started/completed, data/inst
system.cpu.itb.walker.walkRequestOrigin_Requested::total            0                       # Table walker requests started/completed, data/inst
system.cpu.itb.walker.walkRequestOrigin_Completed::Data            0                       # Table walker requests started/completed, data/inst
system.cpu.itb.walker.walkRequestOrigin_Completed::Inst            0                       # Table walker requests started/completed, data/inst
system.cpu.itb.walker.walkRequestOrigin_Completed::total            0                       # Table walker requests started/completed, data/inst
system.cpu.itb.walker.walkRequestOrigin::total            0                       # Table walker requests started/completed, data/inst
system.cpu.itb.inst_hits                            0                       # ITB inst hits
system.cpu.itb.inst_misses                          0                       # ITB inst misses
system.cpu.itb.read_hits                            0                       # DTB read hits
system.cpu.itb.read_misses                          0                       # DTB read misses
system.cpu.itb.write_hits                           0                       # DTB write hits
system.cpu.itb.write_misses                         0                       # DTB write misses
system.cpu.itb.flush_tlb                            0                       # Number of times complete TLB was flushed
system.cpu.itb.flush_tlb_mva                        0                       # Number of times TLB was flushed by MVA
system.cpu.itb.flush_tlb_mva_asid                   0                       # Number of times TLB was flushed by MVA & ASID
system.cpu.itb.flush_tlb_asid                       0                       # Number of times TLB was flushed by ASID
system.cpu.itb.flush_entries                        0                       # Number of entries that have been flushed from TLB
system.cpu.itb.align_faults                         0                       # Number of TLB faults due to alignment restrictions
system.cpu.itb.prefetch_faults                      0                       # Number of TLB faults due to prefetch
system.cpu.itb.domain_faults                        0                       # Number of TLB faults due to domain restrictions
system.cpu.itb.perms_faults                         0                       # Number of TLB faults due to permissions restrictions
system.cpu.itb.read_accesses                        0                       # DTB read accesses
system.cpu.itb.write_accesses                       0                       # DTB write accesses
system.cpu.itb.inst_accesses                        0                       # ITB inst accesses
system.cpu.itb.hits                                 0                       # DTB hits
system.cpu.itb.misses                               0                       # DTB misses
system.cpu.itb.accesses                             0                       # DTB accesses
system.cpu.workload.numSyscalls                 10023                       # Number of system calls
system.cpu.pwrStateResidencyTicks::ON     52522130500                       # Cumulative time (in ticks) in various power states
system.cpu.numCycles                        105044261                       # number of cpu cycles simulated
system.cpu.numWorkItemsStarted                      0                       # number of work items this cpu started
system.cpu.numWorkItemsCompleted                    0                       # number of work items this cpu completed
system.cpu.committedInsts                    15300803                       # Number of instructions committed
system.cpu.committedOps                      18808946                       # Number of ops (including micro ops) committed
system.cpu.num_int_alu_accesses              16514084                       # Number of integer alu accesses
system.cpu.num_fp_alu_accesses                     16                       # Number of float alu accesses
system.cpu.num_vec_alu_accesses                     0                       # Number of vector alu accesses
system.cpu.num_func_calls                      981071                       # number of times a function call or return occured
system.cpu.num_conditional_control_insts      2577924                       # number of instructions that are conditional controls
system.cpu.num_int_insts                     16514084                       # number of integer instructions
system.cpu.num_fp_insts                            16                       # number of float instructions
system.cpu.num_vec_insts                            0                       # number of vector instructions
system.cpu.num_int_register_reads            26808211                       # number of times the integer registers were read
system.cpu.num_int_register_writes           10434183                       # number of times the integer registers were written
system.cpu.num_fp_register_reads                   16                       # number of times the floating registers were read
system.cpu.num_fp_register_writes                   0                       # number of times the floating registers were written
system.cpu.num_vec_register_reads                   0                       # number of times the vector registers were read
system.cpu.num_vec_register_writes                  0                       # number of times the vector registers were written
system.cpu.num_cc_register_reads             69334335                       # number of times the CC registers were read
system.cpu.num_cc_register_writes             8674167                       # number of times the CC registers were written
system.cpu.num_mem_refs                       6901817                       # number of memory refs
system.cpu.num_load_insts                     4104063                       # Number of load instructions
system.cpu.num_store_insts                    2797754                       # Number of store instructions
system.cpu.num_idle_cycles                          0                       # Number of idle cycles
system.cpu.num_busy_cycles                  105044261                       # Number of busy cycles
system.cpu.not_idle_fraction                        1                       # Percentage of non-idle cycles
system.cpu.idle_fraction                            0                       # Percentage of idle cycles
system.cpu.Branches                           3814169                       # Number of branches fetched
system.cpu.op_class::No_OpClass                     0      0.00%      0.00% # Class of executed instruction
system.cpu.op_class::IntAlu                  12269964     63.92%     63.92% # Class of executed instruction
system.cpu.op_class::IntMult                    24444      0.13%     64.05% # Class of executed instruction
system.cpu.op_class::IntDiv                         0      0.00%     64.05% # Class of executed instruction
system.cpu.op_class::FloatAdd                       0      0.00%     64.05% # Class of executed instruction
system.cpu.op_class::FloatCmp                       0      0.00%     64.05% # Class of executed instruction
system.cpu.op_class::FloatCvt                       0      0.00%     64.05% # Class of executed instruction
system.cpu.op_class::FloatMult                      0      0.00%     64.05% # Class of executed instruction
system.cpu.op_class::FloatMultAcc                   0      0.00%     64.05% # Class of executed instruction
system.cpu.op_class::FloatDiv                       0      0.00%     64.05% # Class of executed instruction
system.cpu.op_class::FloatMisc                      0      0.00%     64.05% # Class of executed instruction
system.cpu.op_class::FloatSqrt                      0      0.00%     64.05% # Class of executed instruction
system.cpu.op_class::SimdAdd                        0      0.00%     64.05% # Class of executed instruction
system.cpu.op_class::SimdAddAcc                     0      0.00%     64.05% # Class of executed instruction
system.cpu.op_class::SimdAlu                        0      0.00%     64.05% # Class of executed instruction
system.cpu.op_class::SimdCmp                        0      0.00%     64.05% # Class of executed instruction
system.cpu.op_class::SimdCvt                        0      0.00%     64.05% # Class of executed instruction
system.cpu.op_class::SimdMisc                       0      0.00%     64.05% # Class of executed instruction
system.cpu.op_class::SimdMult                       0      0.00%     64.05% # Class of executed instruction
system.cpu.op_class::SimdMultAcc                    0      0.00%     64.05% # Class of executed instruction
system.cpu.op_class::SimdShift                      0      0.00%     64.05% # Class of executed instruction
system.cpu.op_class::SimdShiftAcc                   0      0.00%     64.05% # Class of executed instruction
system.cpu.op_class::SimdSqrt                       0      0.00%     64.05% # Class of executed instruction
system.cpu.op_class::SimdFloatAdd                   0      0.00%     64.05% # Class of executed instruction
system.cpu.op_class::SimdFloatAlu                   0      0.00%     64.05% # Class of executed instruction
system.cpu.op_class::SimdFloatCmp                   0      0.00%     64.05% # Class of executed instruction
system.cpu.op_class::SimdFloatCvt                   0      0.00%     64.05% # Class of executed instruction
system.cpu.op_class::SimdFloatDiv                   0      0.00%     64.05% # Class of executed instruction
system.cpu.op_class::SimdFloatMisc                  0      0.00%     64.05% # Class of executed instruction
system.cpu.op_class::SimdFloatMult                  0      0.00%     64.05% # Class of executed instruction
system.cpu.op_class::SimdFloatMultAcc               0      0.00%     64.05% # Class of executed instruction
system.cpu.op_class::SimdFloatSqrt                  0      0.00%     64.05% # Class of executed instruction
system.cpu.op_class::MemRead                  4104063     21.38%     85.43% # Class of executed instruction
system.cpu.op_class::MemWrite                 2797738     14.57%    100.00% # Class of executed instruction
system.cpu.op_class::FloatMemRead                   0      0.00%    100.00% # Class of executed instruction
system.cpu.op_class::FloatMemWrite                 16      0.00%    100.00% # Class of executed instruction
system.cpu.op_class::IprAccess                      0      0.00%    100.00% # Class of executed instruction
system.cpu.op_class::InstPrefetch                   0      0.00%    100.00% # Class of executed instruction
system.cpu.op_class::total                   19196225                       # Class of executed instruction
system.cpu.dcache.tags.pwrStateResidencyTicks::UNDEFINED  52522130500                       # Cumulative time (in ticks) in various power states
system.cpu.dcache.tags.tagsinuse            31.998461                       # Cycle average of tags in use
system.cpu.dcache.tags.total_refs             6609835                       # Total number of references to valid blocks.
system.cpu.dcache.tags.sampled_refs            361898                       # Sample count of references to valid blocks.
system.cpu.dcache.tags.avg_refs             18.264359                       # Average number of references to valid blocks.
system.cpu.dcache.tags.warmup_cycle            175500                       # Cycle when the warmup percentage was hit.
system.cpu.dcache.tags.occ_blocks::.cpu.data    31.998461                       # Average occupied blocks per requestor
system.cpu.dcache.tags.occ_percent::.cpu.data     0.999952                       # Average percentage of cache occupancy
system.cpu.dcache.tags.occ_percent::total     0.999952                       # Average percentage of cache occupancy
system.cpu.dcache.tags.occ_task_id_blocks::1024           32                       # Occupied blocks per task id
system.cpu.dcache.tags.age_task_id_blocks_1024::0           27                       # Occupied blocks per task id
system.cpu.dcache.tags.age_task_id_blocks_1024::3            5                       # Occupied blocks per task id
system.cpu.dcache.tags.occ_task_id_percent::1024            1                       # Percentage of cache occupancy per task id
system.cpu.dcache.tags.tag_accesses          26801238                       # Number of tag accesses
system.cpu.dcache.tags.data_accesses         26801238                       # Number of data accesses
system.cpu.dcache.pwrStateResidencyTicks::UNDEFINED  52522130500                       # Cumulative time (in ticks) in various power states
system.cpu.dcache.ReadReq_hits::.cpu.data      3609396                       # number of ReadReq hits
system.cpu.dcache.ReadReq_hits::total         3609396                       # number of ReadReq hits
system.cpu.dcache.WriteReq_hits::.cpu.data      2558475                       # number of WriteReq hits
system.cpu.dcache.WriteReq_hits::total        2558475                       # number of WriteReq hits
system.cpu.dcache.LoadLockedReq_hits::.cpu.data        40033                       # number of LoadLockedReq hits
system.cpu.dcache.LoadLockedReq_hits::total        40033                       # number of LoadLockedReq hits
system.cpu.dcache.StoreCondReq_hits::.cpu.data        40033                       # number of StoreCondReq hits
system.cpu.dcache.StoreCondReq_hits::total        40033                       # number of StoreCondReq hits
system.cpu.dcache.demand_hits::.cpu.data      6167871                       # number of demand (read+write) hits
system.cpu.dcache.demand_hits::total          6167871                       # number of demand (read+write) hits
system.cpu.dcache.overall_hits::.cpu.data      6167871                       # number of overall hits
system.cpu.dcache.overall_hits::total         6167871                       # number of overall hits
system.cpu.dcache.ReadReq_misses::.cpu.data       311032                       # number of ReadReq misses
system.cpu.dcache.ReadReq_misses::total        311032                       # number of ReadReq misses
system.cpu.dcache.WriteReq_misses::.cpu.data        50866                       # number of WriteReq misses
system.cpu.dcache.WriteReq_misses::total        50866                       # number of WriteReq misses
system.cpu.dcache.demand_misses::.cpu.data       361898                       # number of demand (read+write) misses
system.cpu.dcache.demand_misses::total         361898                       # number of demand (read+write) misses
system.cpu.dcache.overall_misses::.cpu.data       361898                       # number of overall misses
system.cpu.dcache.overall_misses::total        361898                       # number of overall misses
system.cpu.dcache.ReadReq_miss_latency::.cpu.data  16498613000                       # number of ReadReq miss cycles
system.cpu.dcache.ReadReq_miss_latency::total  16498613000                       # number of ReadReq miss cycles
system.cpu.dcache.WriteReq_miss_latency::.cpu.data   2198244500                       # number of WriteReq miss cycles
system.cpu.dcache.WriteReq_miss_latency::total   2198244500                       # number of WriteReq miss cycles
system.cpu.dcache.demand_miss_latency::.cpu.data  18696857500                       # number of demand (read+write) miss cycles
system.cpu.dcache.demand_miss_latency::total  18696857500                       # number of demand (read+write) miss cycles
system.cpu.dcache.overall_miss_latency::.cpu.data  18696857500                       # number of overall miss cycles
system.cpu.dcache.overall_miss_latency::total  18696857500                       # number of overall miss cycles
system.cpu.dcache.ReadReq_accesses::.cpu.data      3920428                       # number of ReadReq accesses(hits+misses)
system.cpu.dcache.ReadReq_accesses::total      3920428                       # number of ReadReq accesses(hits+misses)
system.cpu.dcache.WriteReq_accesses::.cpu.data      2609341                       # number of WriteReq accesses(hits+misses)
system.cpu.dcache.WriteReq_accesses::total      2609341                       # number of WriteReq accesses(hits+misses)
system.cpu.dcache.LoadLockedReq_accesses::.cpu.data        40033                       # number of LoadLockedReq accesses(hits+misses)
system.cpu.dcache.LoadLockedReq_accesses::total        40033                       # number of LoadLockedReq accesses(hits+misses)
system.cpu.dcache.StoreCondReq_accesses::.cpu.data        40033                       # number of StoreCondReq accesses(hits+misses)
system.cpu.dcache.StoreCondReq_accesses::total        40033                       # number of StoreCondReq accesses(hits+misses)
system.cpu.dcache.demand_accesses::.cpu.data      6529769                       # number of demand (read+write) accesses
system.cpu.dcache.demand_accesses::total      6529769                       # number of demand (read+write) accesses
system.cpu.dcache.overall_accesses::.cpu.data      6529769                       # number of overall (read+write) accesses
system.cpu.dcache.overall_accesses::total      6529769                       # number of overall (read+write) accesses
system.cpu.dcache.ReadReq_miss_rate::.cpu.data     0.079336                       # miss rate for ReadReq accesses
system.cpu.dcache.ReadReq_miss_rate::total     0.079336                       # miss rate for ReadReq accesses
system.cpu.dcache.WriteReq_miss_rate::.cpu.data     0.019494                       # miss rate for WriteReq accesses
system.cpu.dcache.WriteReq_miss_rate::total     0.019494                       # miss rate for WriteReq accesses
system.cpu.dcache.demand_miss_rate::.cpu.data     0.055423                       # miss rate for demand accesses
system.cpu.dcache.demand_miss_rate::total     0.055423                       # miss rate for demand accesses
system.cpu.dcache.overall_miss_rate::.cpu.data     0.055423                       # miss rate for overall accesses
system.cpu.dcache.overall_miss_rate::total     0.055423                       # miss rate for overall accesses
system.cpu.dcache.ReadReq_avg_miss_latency::.cpu.data 53044.744592                       # average ReadReq miss latency
system.cpu.dcache.ReadReq_avg_miss_latency::total 53044.744592                       # average ReadReq miss latency
system.cpu.dcache.WriteReq_avg_miss_latency::.cpu.data 43216.382259                       # average WriteReq miss latency
system.cpu.dcache.WriteReq_avg_miss_latency::total 43216.382259                       # average WriteReq miss latency
system.cpu.dcache.demand_avg_miss_latency::.cpu.data 51663.334697                       # average overall miss latency
system.cpu.dcache.demand_avg_miss_latency::total 51663.334697                       # average overall miss latency
system.cpu.dcache.overall_avg_miss_latency::.cpu.data 51663.334697                       # average overall miss latency
system.cpu.dcache.overall_avg_miss_latency::total 51663.334697                       # average overall miss latency
system.cpu.dcache.blocked_cycles::no_mshrs            0                       # number of cycles access was blocked
system.cpu.dcache.blocked_cycles::no_targets            0                       # number of cycles access was blocked
system.cpu.dcache.blocked::no_mshrs                 0                       # number of cycles access was blocked
system.cpu.dcache.blocked::no_targets               0                       # number of cycles access was blocked
system.cpu.dcache.avg_blocked_cycles::no_mshrs          nan                       # average number of cycles each access was blocked
system.cpu.dcache.avg_blocked_cycles::no_targets          nan                       # average number of cycles each access was blocked
system.cpu.dcache.writebacks::.writebacks       148383                       # number of writebacks
system.cpu.dcache.writebacks::total            148383                       # number of writebacks
system.cpu.dcache.ReadReq_mshr_misses::.cpu.data       311032                       # number of ReadReq MSHR misses
system.cpu.dcache.ReadReq_mshr_misses::total       311032                       # number of ReadReq MSHR misses
system.cpu.dcache.WriteReq_mshr_misses::.cpu.data        50866                       # number of WriteReq MSHR misses
system.cpu.dcache.WriteReq_mshr_misses::total        50866                       # number of WriteReq MSHR misses
system.cpu.dcache.demand_mshr_misses::.cpu.data       361898                       # number of demand (read+write) MSHR misses
system.cpu.dcache.demand_mshr_misses::total       361898                       # number of demand (read+write) MSHR misses
system.cpu.dcache.overall_mshr_misses::.cpu.data       361898                       # number of overall MSHR misses
system.cpu.dcache.overall_mshr_misses::total       361898                       # number of overall MSHR misses
system.cpu.dcache.ReadReq_mshr_miss_latency::.cpu.data  16187581000                       # number of ReadReq MSHR miss cycles
system.cpu.dcache.ReadReq_mshr_miss_latency::total  16187581000                       # number of ReadReq MSHR miss cycles
system.cpu.dcache.WriteReq_mshr_miss_latency::.cpu.data   2147378500                       # number of WriteReq MSHR miss cycles
system.cpu.dcache.WriteReq_mshr_miss_latency::total   2147378500                       # number of WriteReq MSHR miss cycles
system.cpu.dcache.demand_mshr_miss_latency::.cpu.data  18334959500                       # number of demand (read+write) MSHR miss cycles
system.cpu.dcache.demand_mshr_miss_latency::total  18334959500                       # number of demand (read+write) MSHR miss cycles
system.cpu.dcache.overall_mshr_miss_latency::.cpu.data  18334959500                       # number of overall MSHR miss cycles
system.cpu.dcache.overall_mshr_miss_latency::total  18334959500                       # number of overall MSHR miss cycles
system.cpu.dcache.ReadReq_mshr_miss_rate::.cpu.data     0.079336                       # mshr miss rate for ReadReq accesses
system.cpu.dcache.ReadReq_mshr_miss_rate::total     0.079336                       # mshr miss rate for ReadReq accesses
system.cpu.dcache.WriteReq_mshr_miss_rate::.cpu.data     0.019494                       # mshr miss rate for WriteReq accesses
system.cpu.dcache.WriteReq_mshr_miss_rate::total     0.019494                       # mshr miss rate for WriteReq accesses
system.cpu.dcache.demand_mshr_miss_rate::.cpu.data     0.055423                       # mshr miss rate for demand accesses
system.cpu.dcache.demand_mshr_miss_rate::total     0.055423                       # mshr miss rate for demand accesses
system.cpu.dcache.overall_mshr_miss_rate::.cpu.data     0.055423                       # mshr miss rate for overall accesses
system.cpu.dcache.overall_mshr_miss_rate::total     0.055423                       # mshr miss rate for overall accesses
system.cpu.dcache.ReadReq_avg_mshr_miss_latency::.cpu.data 52044.744592                       # average ReadReq mshr miss latency
system.cpu.dcache.ReadReq_avg_mshr_miss_latency::total 52044.744592                       # average ReadReq mshr miss latency
system.cpu.dcache.WriteReq_avg_mshr_miss_latency::.cpu.data 42216.382259                       # average WriteReq mshr miss latency
system.cpu.dcache.WriteReq_avg_mshr_miss_latency::total 42216.382259                       # average WriteReq mshr miss latency
system.cpu.dcache.demand_avg_mshr_miss_latency::.cpu.data 50663.334697                       # average overall mshr miss latency
system.cpu.dcache.demand_avg_mshr_miss_latency::total 50663.334697                       # average overall mshr miss latency
system.cpu.dcache.overall_avg_mshr_miss_latency::.cpu.data 50663.334697                       # average overall mshr miss latency
system.cpu.dcache.overall_avg_mshr_miss_latency::total 50663.334697                       # average overall mshr miss latency
system.cpu.dcache.replacements                 361866                       # number of replacements
system.cpu.icache.tags.pwrStateResidencyTicks::UNDEFINED  52522130500                       # Cumulative time (in ticks) in various power states
system.cpu.icache.tags.tagsinuse            63.989103                       # Cycle average of tags in use
system.cpu.icache.tags.total_refs            15439100                       # Total number of references to valid blocks.
system.cpu.icache.tags.sampled_refs           1010793                       # Sample count of references to valid blocks.
system.cpu.icache.tags.avg_refs             15.274245                       # Average number of references to valid blocks.
system.cpu.icache.tags.warmup_cycle             87500                       # Cycle when the warmup percentage was hit.
system.cpu.icache.tags.occ_blocks::.cpu.inst    63.989103                       # Average occupied blocks per requestor
system.cpu.icache.tags.occ_percent::.cpu.inst     0.999830                       # Average percentage of cache occupancy
system.cpu.icache.tags.occ_percent::total     0.999830                       # Average percentage of cache occupancy
system.cpu.icache.tags.occ_task_id_blocks::1024           64                       # Occupied blocks per task id
system.cpu.icache.tags.age_task_id_blocks_1024::0           37                       # Occupied blocks per task id
system.cpu.icache.tags.age_task_id_blocks_1024::1            4                       # Occupied blocks per task id
system.cpu.icache.tags.age_task_id_blocks_1024::3           16                       # Occupied blocks per task id
system.cpu.icache.tags.age_task_id_blocks_1024::4            7                       # Occupied blocks per task id
system.cpu.icache.tags.occ_task_id_percent::1024            1                       # Percentage of cache occupancy per task id
system.cpu.icache.tags.tag_accesses          16449893                       # Number of tag accesses
system.cpu.icache.tags.data_accesses         16449893                       # Number of data accesses
system.cpu.icache.pwrStateResidencyTicks::UNDEFINED  52522130500                       # Cumulative time (in ticks) in various power states
system.cpu.icache.ReadReq_hits::.cpu.inst     14428307                       # number of ReadReq hits
system.cpu.icache.ReadReq_hits::total        14428307                       # number of ReadReq hits
system.cpu.icache.demand_hits::.cpu.inst     14428307                       # number of demand (read+write) hits
system.cpu.icache.demand_hits::total         14428307                       # number of demand (read+write) hits
system.cpu.icache.overall_hits::.cpu.inst     14428307                       # number of overall hits
system.cpu.icache.overall_hits::total        14428307                       # number of overall hits
system.cpu.icache.ReadReq_misses::.cpu.inst      1010793                       # number of ReadReq misses
system.cpu.icache.ReadReq_misses::total       1010793                       # number of ReadReq misses
system.cpu.icache.demand_misses::.cpu.inst      1010793                       # number of demand (read+write) misses
system.cpu.icache.demand_misses::total        1010793                       # number of demand (read+write) misses
system.cpu.icache.overall_misses::.cpu.inst      1010793                       # number of overall misses
system.cpu.icache.overall_misses::total       1010793                       # number of overall misses
system.cpu.icache.ReadReq_miss_latency::.cpu.inst  13213025500                       # number of ReadReq miss cycles
system.cpu.icache.ReadReq_miss_latency::total  13213025500                       # number of ReadReq miss cycles
system.cpu.icache.demand_miss_latency::.cpu.inst  13213025500                       # number of demand (read+write) miss cycles
system.cpu.icache.demand_miss_latency::total  13213025500                       # number of demand (read+write) miss cycles
system.cpu.icache.overall_miss_latency::.cpu.inst  13213025500                       # number of overall miss cycles
system.cpu.icache.overall_miss_latency::total  13213025500                       # number of overall miss cycles
system.cpu.icache.ReadReq_accesses::.cpu.inst     15439100                       # number of ReadReq accesses(hits+misses)
system.cpu.icache.ReadReq_accesses::total     15439100                       # number of ReadReq accesses(hits+misses)
system.cpu.icache.demand_accesses::.cpu.inst     15439100                       # number of demand (read+write) accesses
system.cpu.icache.demand_accesses::total     15439100                       # number of demand (read+write) accesses
system.cpu.icache.overall_accesses::.cpu.inst     15439100                       # number of overall (read+write) accesses
system.cpu.icache.overall_accesses::total     15439100                       # number of overall (read+write) accesses
system.cpu.icache.ReadReq_miss_rate::.cpu.inst     0.065470                       # miss rate for ReadReq accesses
system.cpu.icache.ReadReq_miss_rate::total     0.065470                       # miss rate for ReadReq accesses
system.cpu.icache.demand_miss_rate::.cpu.inst     0.065470                       # miss rate for demand accesses
system.cpu.icache.demand_miss_rate::total     0.065470                       # miss rate for demand accesses
system.cpu.icache.overall_miss_rate::.cpu.inst     0.065470                       # miss rate for overall accesses
system.cpu.icache.overall_miss_rate::total     0.065470                       # miss rate for overall accesses
system.cpu.icache.ReadReq_avg_miss_latency::.cpu.inst 13071.940051                       # average ReadReq miss latency
system.cpu.icache.ReadReq_avg_miss_latency::total 13071.940051                       # average ReadReq miss latency
system.cpu.icache.demand_avg_miss_latency::.cpu.inst 13071.940051                       # average overall miss latency
system.cpu.icache.demand_avg_miss_latency::total 13071.940051                       # average overall miss latency
system.cpu.icache.overall_avg_miss_latency::.cpu.inst 13071.940051                       # average overall miss latency
system.cpu.icache.overall_avg_miss_latency::total 13071.940051                       # average overall miss latency
system.cpu.icache.blocked_cycles::no_mshrs            0                       # number of cycles access was blocked
system.cpu.icache.blocked_cycles::no_targets            0                       # number of cycles access was blocked
system.cpu.icache.blocked::no_mshrs                 0                       # number of cycles access was blocked
system.cpu.icache.blocked::no_targets               0                       # number of cycles access was blocked
system.cpu.icache.avg_blocked_cycles::no_mshrs          nan                       # average number of cycles each access was blocked
[...]
system.l2.ReadCleanReq_accesses::.cpu.inst      1010793                       # number of ReadCleanReq accesses(hits+misses)
system.l2.ReadCleanReq_accesses::total        1010793                       # number of ReadCleanReq accesses(hits+misses)
system.l2.ReadSharedReq_accesses::.cpu.data       311032                       # number of ReadSharedReq accesses(hits+misses)
system.l2.ReadSharedReq_accesses::total        311032                       # number of ReadSharedReq accesses(hits+misses)
system.l2.demand_accesses::.cpu.inst          1010793                       # number of demand (read+write) accesses
system.l2.demand_accesses::.cpu.data           361898                       # number of demand (read+write) accesses
system.l2.demand_accesses::total              1372691                       # number of demand (read+write) accesses
system.l2.overall_accesses::.cpu.inst         1010793                       # number of overall (read+write) accesses
system.l2.overall_accesses::.cpu.data          361898                       # number of overall (read+write) accesses
system.l2.overall_accesses::total             1372691                       # number of overall (read+write) accesses
system.l2.ReadExReq_miss_rate::.cpu.data     0.405910                       # miss rate for ReadExReq accesses
system.l2.ReadExReq_miss_rate::total         0.405910                       # miss rate for ReadExReq accesses
system.l2.ReadCleanReq_miss_rate::.cpu.inst     0.000951                       # miss rate for ReadCleanReq accesses
system.l2.ReadCleanReq_miss_rate::total      0.000951                       # miss rate for ReadCleanReq accesses
system.l2.ReadSharedReq_miss_rate::.cpu.data     0.509594                       # miss rate for ReadSharedReq accesses
system.l2.ReadSharedReq_miss_rate::total     0.509594                       # miss rate for ReadSharedReq accesses
system.l2.demand_miss_rate::.cpu.inst        0.000951                       # miss rate for demand accesses
system.l2.demand_miss_rate::.cpu.data        0.495021                       # miss rate for demand accesses
system.l2.demand_miss_rate::total            0.131208                       # miss rate for demand accesses
system.l2.overall_miss_rate::.cpu.inst       0.000951                       # miss rate for overall accesses
system.l2.overall_miss_rate::.cpu.data       0.495021                       # miss rate for overall accesses
system.l2.overall_miss_rate::total           0.131208                       # miss rate for overall accesses
system.l2.ReadExReq_avg_miss_latency::.cpu.data 84941.153679                       # average ReadExReq miss latency
system.l2.ReadExReq_avg_miss_latency::total 84941.153679                       # average ReadExReq miss latency
system.l2.ReadCleanReq_avg_miss_latency::.cpu.inst 86146.722164                       # average ReadCleanReq miss latency
system.l2.ReadCleanReq_avg_miss_latency::total 86146.722164                       # average ReadCleanReq miss latency
system.l2.ReadSharedReq_avg_miss_latency::.cpu.data 89081.492114                       # average ReadSharedReq miss latency
system.l2.ReadSharedReq_avg_miss_latency::total 89081.492114                       # average ReadSharedReq miss latency
system.l2.demand_avg_miss_latency::.cpu.inst 86146.722164                       # average overall miss latency
system.l2.demand_avg_miss_latency::.cpu.data 88604.310985                       # average overall miss latency
system.l2.demand_avg_miss_latency::total 88591.198059                       # average overall miss latency
system.l2.overall_avg_miss_latency::.cpu.inst 86146.722164                       # average overall miss latency
system.l2.overall_avg_miss_latency::.cpu.data 88604.310985                       # average overall miss latency
system.l2.overall_avg_miss_latency::total 88591.198059                       # average overall miss latency
system.l2.blocked_cycles::no_mshrs                  0                       # number of cycles access was blocked
system.l2.blocked_cycles::no_targets                0                       # number of cycles access was blocked
system.l2.blocked::no_mshrs                         0                       # number of cycles access was blocked
system.l2.blocked::no_targets                       0                       # number of cycles access was blocked
system.l2.avg_blocked_cycles::no_mshrs            nan                       # average number of cycles each access was blocked
system.l2.avg_blocked_cycles::no_targets          nan                       # average number of cycles each access was blocked
system.l2.writebacks::.writebacks               82061                       # number of writebacks
system.l2.writebacks::total                     82061                       # number of writebacks
system.l2.CleanEvict_mshr_misses::.writebacks           13                       # number of CleanEvict MSHR misses
system.l2.CleanEvict_mshr_misses::total            13                       # number of CleanEvict MSHR misses
system.l2.ReadExReq_mshr_misses::.cpu.data        20647                       # number of ReadExReq MSHR misses
system.l2.ReadExReq_mshr_misses::total          20647                       # number of ReadExReq MSHR misses
system.l2.ReadCleanReq_mshr_misses::.cpu.inst          961                       # number of ReadCleanReq MSHR misses
system.l2.ReadCleanReq_mshr_misses::total          961                       # number of ReadCleanReq MSHR misses
system.l2.ReadSharedReq_mshr_misses::.cpu.data       158500                       # number of ReadSharedReq MSHR misses
system.l2.ReadSharedReq_mshr_misses::total       158500                       # number of ReadSharedReq MSHR misses
system.l2.demand_mshr_misses::.cpu.inst           961                       # number of demand (read+write) MSHR misses
system.l2.demand_mshr_misses::.cpu.data        179147                       # number of demand (read+write) MSHR misses
system.l2.demand_mshr_misses::total            180108                       # number of demand (read+write) MSHR misses
system.l2.overall_mshr_misses::.cpu.inst          961                       # number of overall MSHR misses
system.l2.overall_mshr_misses::.cpu.data       179147                       # number of overall MSHR misses
system.l2.overall_mshr_misses::total           180108                       # number of overall MSHR misses
system.l2.ReadExReq_mshr_miss_latency::.cpu.data   1547310000                       # number of ReadExReq MSHR miss cycles
system.l2.ReadExReq_mshr_miss_latency::total   1547310000                       # number of ReadExReq MSHR miss cycles
system.l2.ReadCleanReq_mshr_miss_latency::.cpu.inst     73177000                       # number of ReadCleanReq MSHR miss cycles
system.l2.ReadCleanReq_mshr_miss_latency::total     73177000                       # number of ReadCleanReq MSHR miss cycles
system.l2.ReadSharedReq_mshr_miss_latency::.cpu.data  12534416500                       # number of ReadSharedReq MSHR miss cycles
system.l2.ReadSharedReq_mshr_miss_latency::total  12534416500                       # number of ReadSharedReq MSHR miss cycles
system.l2.demand_mshr_miss_latency::.cpu.inst     73177000                       # number of demand (read+write) MSHR miss cycles
system.l2.demand_mshr_miss_latency::.cpu.data  14081726500                       # number of demand (read+write) MSHR miss cycles
system.l2.demand_mshr_miss_latency::total  14154903500                       # number of demand (read+write) MSHR miss cycles
system.l2.overall_mshr_miss_latency::.cpu.inst     73177000                       # number of overall MSHR miss cycles
system.l2.overall_mshr_miss_latency::.cpu.data  14081726500                       # number of overall MSHR miss cycles
system.l2.overall_mshr_miss_latency::total  14154903500                       # number of overall MSHR miss cycles
system.l2.CleanEvict_mshr_miss_rate::.writebacks          inf                       # mshr miss rate for CleanEvict accesses
system.l2.CleanEvict_mshr_miss_rate::total          inf                       # mshr miss rate for CleanEvict accesses
system.l2.ReadExReq_mshr_miss_rate::.cpu.data     0.405910                       # mshr miss rate for ReadExReq accesses
system.l2.ReadExReq_mshr_miss_rate::total     0.405910                       # mshr miss rate for ReadExReq accesses
system.l2.ReadCleanReq_mshr_miss_rate::.cpu.inst     0.000951                       # mshr miss rate for ReadCleanReq accesses
system.l2.ReadCleanReq_mshr_miss_rate::total     0.000951                       # mshr miss rate for ReadCleanReq accesses
system.l2.ReadSharedReq_mshr_miss_rate::.cpu.data     0.509594                       # mshr miss rate for ReadSharedReq accesses
system.l2.ReadSharedReq_mshr_miss_rate::total     0.509594                       # mshr miss rate for ReadSharedReq accesses
system.l2.demand_mshr_miss_rate::.cpu.inst     0.000951                       # mshr miss rate for demand accesses
system.l2.demand_mshr_miss_rate::.cpu.data     0.495021                       # mshr miss rate for demand accesses
system.l2.demand_mshr_miss_rate::total       0.131208                       # mshr miss rate for demand accesses
system.l2.overall_mshr_miss_rate::.cpu.inst     0.000951                       # mshr miss rate for overall accesses
system.l2.overall_mshr_miss_rate::.cpu.data     0.495021                       # mshr miss rate for overall accesses
system.l2.overall_mshr_miss_rate::total      0.131208                       # mshr miss rate for overall accesses
system.l2.ReadExReq_avg_mshr_miss_latency::.cpu.data 74941.153679                       # average ReadExReq mshr miss latency
system.l2.ReadExReq_avg_mshr_miss_latency::total 74941.153679                       # average ReadExReq mshr miss latency
system.l2.ReadCleanReq_avg_mshr_miss_latency::.cpu.inst 76146.722164                       # average ReadCleanReq mshr miss latency
system.l2.ReadCleanReq_avg_mshr_miss_latency::total 76146.722164                       # average ReadCleanReq mshr miss latency
system.l2.ReadSharedReq_avg_mshr_miss_latency::.cpu.data 79081.492114                       # average ReadSharedReq mshr miss latency
system.l2.ReadSharedReq_avg_mshr_miss_latency::total 79081.492114                       # average ReadSharedReq mshr miss latency
system.l2.demand_avg_mshr_miss_latency::.cpu.inst 76146.722164                       # average overall mshr miss latency
system.l2.demand_avg_mshr_miss_latency::.cpu.data 78604.310985                       # average overall mshr miss latency
system.l2.demand_avg_mshr_miss_latency::total 78591.198059                       # average overall mshr miss latency
system.l2.overall_avg_mshr_miss_latency::.cpu.inst 76146.722164                       # average overall mshr miss latency
system.l2.overall_avg_mshr_miss_latency::.cpu.data 78604.310985                       # average overall mshr miss latency
system.l2.overall_avg_mshr_miss_latency::total 78591.198059                       # average overall mshr miss latency
system.l2.replacements                         179888                       # number of replacements
system.membus.snoop_filter.tot_requests        359688                       # Total number of requests made to the snoop filter.
system.membus.snoop_filter.hit_single_requests       179581                       # Number of requests hitting in the snoop filter with a single holder of the requested data.
system.membus.snoop_filter.hit_multi_requests            0                       # Number of requests hitting in the snoop filter with multiple (>1) holders of the requested data.
system.membus.snoop_filter.tot_snoops               0                       # Total number of snoops made to the snoop filter.
system.membus.snoop_filter.hit_single_snoops            0                       # Number of snoops hitting in the snoop filter with a single holder of the requested data.
system.membus.snoop_filter.hit_multi_snoops            0                       # Number of snoops hitting in the snoop filter with multiple (>1) holders of the requested data.
system.membus.pwrStateResidencyTicks::UNDEFINED  52522130500                       # Cumulative time (in ticks) in various power states
system.membus.trans_dist::ReadResp             159461                       # Transaction distribution
system.membus.trans_dist::WritebackDirty        82061                       # Transaction distribution
system.membus.trans_dist::CleanEvict            97519                       # Transaction distribution
system.membus.trans_dist::ReadExReq             20647                       # Transaction distribution
system.membus.trans_dist::ReadExResp            20647                       # Transaction distribution
system.membus.trans_dist::ReadSharedReq        159461                       # Transaction distribution
system.membus.pkt_count_system.l2.mem_side::system.mem_ctrls.port       539796                       # Packet count per connected master and slave (bytes)
system.membus.pkt_count::total                 539796                       # Packet count per connected master and slave (bytes)
system.membus.pkt_size_system.l2.mem_side::system.mem_ctrls.port      8389408                       # Cumulative packet size per connected master and slave (bytes)
system.membus.pkt_size::total                 8389408                       # Cumulative packet size per connected master and slave (bytes)
system.membus.snoops                                0                       # Total snoops (count)
system.membus.snoopTraffic                          0                       # Total snoop traffic (bytes)
system.membus.snoop_fanout::samples            180108                       # Request fanout histogram
system.membus.snoop_fanout::mean                    0                       # Request fanout histogram
system.membus.snoop_fanout::stdev                   0                       # Request fanout histogram
system.membus.snoop_fanout::underflows              0      0.00%      0.00% # Request fanout histogram
system.membus.snoop_fanout::0                  180108    100.00%    100.00% # Request fanout histogram
system.membus.snoop_fanout::1                       0      0.00%    100.00% # Request fanout histogram
system.membus.snoop_fanout::overflows               0      0.00%    100.00% # Request fanout histogram
system.membus.snoop_fanout::min_value               0                       # Request fanout histogram
system.membus.snoop_fanout::max_value               0                       # Request fanout histogram
system.membus.snoop_fanout::total              180108                       # Request fanout histogram
system.membus.reqLayer0.occupancy           529097000                       # Layer occupancy (ticks)
system.membus.reqLayer0.utilization               1.0                       # Layer utilization (%)
system.membus.respLayer1.occupancy          606295500                       # Layer occupancy (ticks)
system.membus.respLayer1.utilization              1.2                       # Layer utilization (%)
system.tol2bus.snoop_filter.tot_requests      2745286                       # Total number of requests made to the snoop filter.
system.tol2bus.snoop_filter.hit_single_requests      1372595                       # Number of requests hitting in the snoop filter with a single holder of the requested data.
system.tol2bus.snoop_filter.hit_multi_requests           29                       # Number of requests hitting in the snoop filter with multiple (>1) holders of the requested data.
system.tol2bus.snoop_filter.tot_snoops            321                       # Total number of snoops made to the snoop filter.
system.tol2bus.snoop_filter.hit_single_snoops          321                       # Number of snoops hitting in the snoop filter with a single holder of the requested data.
system.tol2bus.snoop_filter.hit_multi_snoops            0                       # Number of snoops hitting in the snoop filter with multiple (>1) holders of the requested data.
system.tol2bus.pwrStateResidencyTicks::UNDEFINED  52522130500                       # Cumulative time (in ticks) in various power states
system.tol2bus.trans_dist::ReadResp           1321825                       # Transaction distribution
system.tol2bus.trans_dist::WritebackDirty       230444                       # Transaction distribution
system.tol2bus.trans_dist::WritebackClean      1010729                       # Transaction distribution
system.tol2bus.trans_dist::CleanEvict          311310                       # Transaction distribution
system.tol2bus.trans_dist::ReadExReq            50866                       # Transaction distribution
system.tol2bus.trans_dist::ReadExResp           50866                       # Transaction distribution
system.tol2bus.trans_dist::ReadCleanReq       1010793                       # Transaction distribution
system.tol2bus.trans_dist::ReadSharedReq       311032                       # Transaction distribution
system.tol2bus.pkt_count_system.cpu.icache.mem_side::system.l2.cpu_side      3032315                       # Packet count per connected master and slave (bytes)
system.tol2bus.pkt_count_system.cpu.dcache.mem_side::system.l2.cpu_side      1085662                       # Packet count per connected master and slave (bytes)
system.tol2bus.pkt_count::total               4117977                       # Packet count per connected master and slave (bytes)
system.tol2bus.pkt_size_system.cpu.icache.mem_side::system.l2.cpu_side     64688704                       # Cumulative packet size per connected master and slave (bytes)
system.tol2bus.pkt_size_system.cpu.dcache.mem_side::system.l2.cpu_side     16328992                       # Cumulative packet size per connected master and slave (bytes)
system.tol2bus.pkt_size::total               81017696                       # Cumulative packet size per connected master and slave (bytes)
system.tol2bus.snoops                          179888                       # Total snoops (count)
system.tol2bus.snoopTraffic                   2625952                       # Total snoop traffic (bytes)
system.tol2bus.snoop_fanout::samples          1552579                       # Request fanout histogram
system.tol2bus.snoop_fanout::mean            0.000225                       # Request fanout histogram
system.tol2bus.snoop_fanout::stdev           0.015013                       # Request fanout histogram
system.tol2bus.snoop_fanout::underflows             0      0.00%      0.00% # Request fanout histogram
system.tol2bus.snoop_fanout::0                1552229     99.98%     99.98% # Request fanout histogram
system.tol2bus.snoop_fanout::1                    350      0.02%    100.00% # Request fanout histogram
system.tol2bus.snoop_fanout::2                      0      0.00%    100.00% # Request fanout histogram
system.tol2bus.snoop_fanout::overflows              0      0.00%    100.00% # Request fanout histogram
system.tol2bus.snoop_fanout::min_value              0                       # Request fanout histogram
system.tol2bus.snoop_fanout::max_value              1                       # Request fanout histogram
system.tol2bus.snoop_fanout::total            1552579                       # Request fanout histogram
system.tol2bus.reqLayer0.occupancy         1952199000                       # Layer occupancy (ticks)
system.tol2bus.reqLayer0.utilization              3.7                       # Layer utilization (%)
system.tol2bus.respLayer0.occupancy        1010793000                       # Layer occupancy (ticks)
system.tol2bus.respLayer0.utilization             1.9                       # Layer utilization (%)
system.tol2bus.respLayer1.occupancy         361898000                       # Layer occupancy (ticks)
system.tol2bus.respLayer1.utilization             0.7                       # Layer utilization (%)

---------- End Simulation Statistics   ----------
