gem5 Simulator System.  http://gem5.org
gem5 is copyrighted software; use the --copyright option for details.

gem5 compiled Nov 18 2018 19:27:57
gem5 started Nov 18 2018 19:28:18
gem5 executing on Chinmay-Laptop, pid 2367
command line: /home/chinmaysj96/Desktop/project/gem52/gem5/build/ARM/gem5.opt -d /home/chinmaysj96/Desktop/project/gem52/gem5/p3Dijkstra-lru /home/chinmaysj96/Desktop/project/gem52/gem5/configs/example/se.py --cpu-type=TimingSimpleCPU --caches --l1d_size=1kB --l1d_assoc=4 --cacheline_size=32 --l2cache --num-l2caches=1 --l2_size=16kB --l2_assoc=16 --l1i_size=2kB --l1i_assoc=1 -c ./benchmarks/dijkstra/dijkstra_small -o ./benchmarks/dijkstra/input.dat

Global frequency set at 1000000000000 ticks per second
base madhe ahe
replacement data 0x55c3389bf200
replacement data type 0x55c338e6db00
blk-set is 0
replacement data 0x55c3389bf1c8
replacement data type 0x55c338e6db00
blk-set is 0
replacement data 0x55c3389bf2b8
replacement data type 0x55c338e6db00
blk-set is 0
replacement data 0x55c3389bf2c0
replacement data type 0x55c338e6db00
blk-set is 0
replacement data 0x55c3389bf2c8
replacement data type 0x55c338e6db00
blk-set is 1
replacement data 0x55c3389bf2d0
replacement data type 0x55c338e6db00
blk-set is 1
replacement data 0x55c3389bf2d8
replacement data type 0x55c338e6db00
blk-set is 1
replacement data 0x55c3389bf5b0
replacement data type 0x55c338e6db00
blk-set is 1
replacement data 0x55c3389bf2e0
replacement data type 0x55c338e6db00
blk-set is 2
replacement data 0x55c3389bf2e8
replacement data type 0x55c338e6db00
blk-set is 2
replacement data 0x55c3389bf2f0
replacement data type 0x55c338e6db00
blk-set is 2
replacement data 0x55c3389bf5c8
replacement data type 0x55c338e6db00
blk-set is 2
replacement data 0x55c3389bf5d0
replacement data type 0x55c338e6db00
blk-set is 3
replacement data 0x55c3389bf5e0
replacement data type 0x55c338e6db00
blk-set is 3
replacement data 0x55c3389bf2f8
replacement data type 0x55c338e6db00
blk-set is 3
replacement data 0x55c3389bf300
replacement data type 0x55c338e6db00
blk-set is 3
replacement data 0x55c3389bf308
replacement data type 0x55c338e6db00
blk-set is 4
replacement data 0x55c3389bf310
replacement data type 0x55c338e6db00
blk-set is 4
replacement data 0x55c3389bf318
replacement data type 0x55c338e6db00
blk-set is 4
replacement data 0x55c3389bf320
replacement data type 0x55c338e6db00
blk-set is 4
replacement data 0x55c3389bf328
replacement data type 0x55c338e6db00
blk-set is 5
replacement data 0x55c3389bf330
replacement data type 0x55c338e6db00
blk-set is 5
replacement data 0x55c3389bf338
replacement data type 0x55c338e6db00
blk-set is 5
replacement data 0x55c3389bf340
replacement data type 0x55c338e6db00
blk-set is 5
replacement data 0x55c3389bf348
replacement data type 0x55c338e6db00
blk-set is 6
replacement data 0x55c3389bf350
replacement data type 0x55c338e6db00
blk-set is 6
replacement data 0x55c3389bf358
replacement data type 0x55c338e6db00
blk-set is 6
replacement data 0x55c3389bf360
replacement data type 0x55c338e6db00
blk-set is 6
replacement data 0x55c3389bf368
replacement data type 0x55c338e6db00
blk-set is 7
replacement data 0x55c3389bf370
replacement data type 0x55c338e6db00
blk-set is 7
replacement data 0x55c3389bf378
replacement data type 0x55c338e6db00
blk-set is 7
replacement data 0x55c3389bf380
replacement data type 0x55c338e6db00
blk-set is 7
base madhe ahe
replacement data 0x55c3389bf2b0
replacement data type 0x55c338e6dbc0
blk-set is 0
replacement data 0x55c3389bf3a0
replacement data type 0x55c338e6dbc0
blk-set is 1
replacement data 0x55c3389bf3b0
replacement data type 0x55c338e6dbc0
blk-set is 2
replacement data 0x55c3389bf3c0
replacement data type 0x55c338e6dbc0
blk-set is 3
replacement data 0x55c3389bf3d0
replacement data type 0x55c338e6dbc0
blk-set is 4
replacement data 0x55c3389bf3e0
replacement data type 0x55c338e6dbc0
blk-set is 5
replacement data 0x55c3389bf3f0
replacement data type 0x55c338e6dbc0
blk-set is 6
replacement data 0x55c3389bf400
replacement data type 0x55c338e6dbc0
blk-set is 7
replacement data 0x55c3389bf410
replacement data type 0x55c338e6dbc0
blk-set is 8
replacement data 0x55c3389bf420
replacement data type 0x55c338e6dbc0
blk-set is 9
replacement data 0x55c3389bf430
replacement data type 0x55c338e6dbc0
blk-set is 10
replacement data 0x55c3389bf440
replacement data type 0x55c338e6dbc0
blk-set is 11
replacement data 0x55c3389bf450
replacement data type 0x55c338e6dbc0
blk-set is 12
replacement data 0x55c3389bf460
replacement data type 0x55c338e6dbc0
blk-set is 13
replacement data 0x55c3389bf470
replacement data type 0x55c338e6dbc0
blk-set is 14
replacement data 0x55c3389bf480
replacement data type 0x55c338e6dbc0
blk-set is 15
replacement data 0x55c3389bf490
replacement data type 0x55c338e6dbc0
blk-set is 16
replacement data 0x55c3389bf4a0
replacement data type 0x55c338e6dbc0
blk-set is 17
replacement data 0x55c3389bf4b0
replacement data type 0x55c338e6dbc0
blk-set is 18
replacement data 0x55c3389bf4c0
replacement data type 0x55c338e6dbc0
blk-set is 19
replacement data 0x55c3389bf4d0
replacement data type 0x55c338e6dbc0
blk-set is 20
replacement data 0x55c3389bf4e0
replacement data type 0x55c338e6dbc0
blk-set is 21
replacement data 0x55c3389bf4f0
replacement data type 0x55c338e6dbc0
blk-set is 22
replacement data 0x55c3389bf500
replacement data type 0x55c338e6dbc0
blk-set is 23
replacement data 0x55c3389bf510
replacement data type 0x55c338e6dbc0
blk-set is 24
replacement data 0x55c3389bf520
replacement data type 0x55c338e6dbc0
blk-set is 25
replacement data 0x55c3389bf530
replacement data type 0x55c338e6dbc0
blk-set is 26
replacement data 0x55c3389bf540
replacement data type 0x55c338e6dbc0
blk-set is 27
replacement data 0x55c3389bf550
replacement data type 0x55c338e6dbc0
blk-set is 28
replacement data 0x55c3389bf560
replacement data type 0x55c338e6dbc0
blk-set is 29
replacement data 0x55c3389bf570
replacement data type 0x55c338e6dbc0
blk-set is 30
replacement data 0x55c3389bf580
replacement data type 0x55c338e6dbc0
blk-set is 31
replacement data 0x55c3389bf590
replacement data type 0x55c338e6dbc0
blk-set is 32
replacement data 0x55c3389bf5a0
replacement data type 0x55c338e6dbc0
blk-set is 33
replacement data 0x55c3389bf918
replacement data type 0x55c338e6dbc0
blk-set is 34
replacement data 0x55c3389bf928
replacement data type 0x55c338e6dbc0
blk-set is 35
replacement data 0x55c3389bf938
replacement data type 0x55c338e6dbc0
blk-set is 36
replacement data 0x55c3389bf948
replacement data type 0x55c338e6dbc0
blk-set is 37
replacement data 0x55c3389bf958
replacement data type 0x55c338e6dbc0
blk-set is 38
replacement data 0x55c3389bf968
replacement data type 0x55c338e6dbc0
blk-set is 39
replacement data 0x55c3389bf978
replacement data type 0x55c338e6dbc0
blk-set is 40
replacement data 0x55c3389bf988
replacement data type 0x55c338e6dbc0
blk-set is 41
replacement data 0x55c3389bf998
replacement data type 0x55c338e6dbc0
blk-set is 42
replacement data 0x55c3389bf9a8
replacement data type 0x55c338e6dbc0
blk-set is 43
replacement data 0x55c3389bf9b8
replacement data type 0x55c338e6dbc0
blk-set is 44
replacement data 0x55c3389bf9c8
replacement data type 0x55c338e6dbc0
blk-set is 45
replacement data 0x55c3389bf9d8
replacement data type 0x55c338e6dbc0
blk-set is 46
replacement data 0x55c3389bf9e8
replacement data type 0x55c338e6dbc0
blk-set is 47
replacement data 0x55c3389bf9f8
replacement data type 0x55c338e6dbc0
blk-set is 48
replacement data 0x55c3389bfa08
replacement data type 0x55c338e6dbc0
blk-set is 49
replacement data 0x55c3389bfa18
replacement data type 0x55c338e6dbc0
blk-set is 50
replacement data 0x55c3389bfa28
replacement data type 0x55c338e6dbc0
blk-set is 51
replacement data 0x55c3389bfa38
replacement data type 0x55c338e6dbc0
blk-set is 52
replacement data 0x55c3389bfa48
replacement data type 0x55c338e6dbc0
blk-set is 53
replacement data 0x55c3389bfa58
replacement data type 0x55c338e6dbc0
blk-set is 54
replacement data 0x55c3389bfa68
replacement data type 0x55c338e6dbc0
blk-set is 55
replacement data 0x55c3389bfa78
replacement data type 0x55c338e6dbc0
blk-set is 56
replacement data 0x55c3389bfa88
replacement data type 0x55c338e6dbc0
blk-set is 57
replacement data 0x55c3389bfa98
replacement data type 0x55c338e6dbc0
blk-set is 58
replacement data 0x55c3389bfaa8
replacement data type 0x55c338e6dbc0
blk-set is 59
replacement data 0x55c3389bfab8
replacement data type 0x55c338e6dbc0
blk-set is 60
replacement data 0x55c3389bfac8
replacement data type 0x55c338e6dbc0
blk-set is 61
replacement data 0x55c3389bfad8
replacement data type 0x55c338e6dbc0
blk-set is 62
replacement data 0x55c3389bfae8
replacement data type 0x55c338e6dbc0
blk-set is 63
base madhe ahe
replacement data 0x55c3389bf388
replacement data type 0x55c338e6db40
blk-set is 0
replacement data 0x55c3389bf390
replacement data type 0x55c338e6db40
blk-set is 0
replacement data 0x55c3389bfb00
replacement data type 0x55c338e6db40
blk-set is 0
replacement data 0x55c3389bfb08
replacement data type 0x55c338e6db40
blk-set is 0
replacement data 0x55c3389bfb10
replacement data type 0x55c338e6db40
blk-set is 0
replacement data 0x55c3389bfb18
replacement data type 0x55c338e6db40
blk-set is 0
replacement data 0x55c3389bfb20
replacement data type 0x55c338e6db40
blk-set is 0
replacement data 0x55c3389bfb28
replacement data type 0x55c338e6db40
blk-set is 0
replacement data 0x55c3389bfb30
replacement data type 0x55c338e6db40
blk-set is 0
replacement data 0x55c3389bfb38
replacement data type 0x55c338e6db40
blk-set is 0
replacement data 0x55c3389bfb40
replacement data type 0x55c338e6db40
blk-set is 0
replacement data 0x55c3389bfb48
replacement data type 0x55c338e6db40
blk-set is 0
replacement data 0x55c3389bfb50
replacement data type 0x55c338e6db40
blk-set is 0
replacement data 0x55c3389bfb58
replacement data type 0x55c338e6db40
blk-set is 0
replacement data 0x55c3389bfb60
replacement data type 0x55c338e6db40
blk-set is 0
replacement data 0x55c3389bfb68
replacement data type 0x55c338e6db40
blk-set is 0
replacement data 0x55c3389bfb70
replacement data type 0x55c338e6db40
blk-set is 1
replacement data 0x55c3389bfb78
replacement data type 0x55c338e6db40
blk-set is 1
replacement data 0x55c3389bfb80
replacement data type 0x55c338e6db40
blk-set is 1
replacement data 0x55c3389bfb88
replacement data type 0x55c338e6db40
blk-set is 1
replacement data 0x55c3389bfb90
replacement data type 0x55c338e6db40
blk-set is 1
replacement data 0x55c3389bfb98
replacement data type 0x55c338e6db40
blk-set is 1
replacement data 0x55c3389bfba0
replacement data type 0x55c338e6db40
blk-set is 1
replacement data 0x55c3389bfba8
replacement data type 0x55c338e6db40
blk-set is 1
replacement data 0x55c3389bfbb0
replacement data type 0x55c338e6db40
blk-set is 1
replacement data 0x55c3389bfbb8
replacement data type 0x55c338e6db40
blk-set is 1
replacement data 0x55c3389bfbc0
replacement data type 0x55c338e6db40
blk-set is 1
replacement data 0x55c3389bfbc8
replacement data type 0x55c338e6db40
blk-set is 1
replacement data 0x55c3389bfbd0
replacement data type 0x55c338e6db40
blk-set is 1
replacement data 0x55c3389bfbd8
replacement data type 0x55c338e6db40
blk-set is 1
replacement data 0x55c3389bfbe0
replacement data type 0x55c338e6db40
blk-set is 1
replacement data 0x55c3389bfbe8
replacement data type 0x55c338e6db40
blk-set is 1
replacement data 0x55c3389bfbf0
replacement data type 0x55c338e6db40
blk-set is 2
replacement data 0x55c3389bfbf8
replacement data type 0x55c338e6db40
blk-set is 2
replacement data 0x55c3389bfc00
replacement data type 0x55c338e6db40
blk-set is 2
replacement data 0x55c3389bfc08
replacement data type 0x55c338e6db40
blk-set is 2
replacement data 0x55c3389bfc10
replacement data type 0x55c338e6db40
blk-set is 2
replacement data 0x55c3389bfc18
replacement data type 0x55c338e6db40
blk-set is 2
replacement data 0x55c3389bfc20
replacement data type 0x55c338e6db40
blk-set is 2
replacement data 0x55c3389bfc28
replacement data type 0x55c338e6db40
blk-set is 2
replacement data 0x55c3389bfc30
replacement data type 0x55c338e6db40
blk-set is 2
replacement data 0x55c3389bfc38
replacement data type 0x55c338e6db40
blk-set is 2
replacement data 0x55c3389bfc40
replacement data type 0x55c338e6db40
blk-set is 2
replacement data 0x55c3389bfc48
replacement data type 0x55c338e6db40
blk-set is 2
replacement data 0x55c3389bfc50
replacement data type 0x55c338e6db40
blk-set is 2
replacement data 0x55c3389bfc58
replacement data type 0x55c338e6db40
blk-set is 2
replacement data 0x55c3389bfc60
replacement data type 0x55c338e6db40
blk-set is 2
replacement data 0x55c3389bfc68
replacement data type 0x55c338e6db40
blk-set is 2
replacement data 0x55c3389bfc70
replacement data type 0x55c338e6db40
blk-set is 3
replacement data 0x55c3389bfc78
replacement data type 0x55c338e6db40
blk-set is 3
replacement data 0x55c3389bfc80
replacement data type 0x55c338e6db40
blk-set is 3
replacement data 0x55c3389bfc88
replacement data type 0x55c338e6db40
blk-set is 3
replacement data 0x55c3389bfc90
replacement data type 0x55c338e6db40
blk-set is 3
replacement data 0x55c3389bfc98
replacement data type 0x55c338e6db40
blk-set is 3
replacement data 0x55c3389bfca0
replacement data type 0x55c338e6db40
blk-set is 3
replacement data 0x55c3389bfca8
replacement data type 0x55c338e6db40
blk-set is 3
replacement data 0x55c3389bfcb0
replacement data type 0x55c338e6db40
blk-set is 3
replacement data 0x55c3389bfcb8
replacement data type 0x55c338e6db40
blk-set is 3
replacement data 0x55c3389bfcc0
replacement data type 0x55c338e6db40
blk-set is 3
replacement data 0x55c3389bfcc8
replacement data type 0x55c338e6db40
blk-set is 3
replacement data 0x55c3389bfcd0
replacement data type 0x55c338e6db40
blk-set is 3
replacement data 0x55c3389bfcd8
replacement data type 0x55c338e6db40
blk-set is 3
replacement data 0x55c3389bfce0
replacement data type 0x55c338e6db40
blk-set is 3
replacement data 0x55c3389bfce8
replacement data type 0x55c338e6db40
blk-set is 3
replacement data 0x55c3389bfcf0
replacement data type 0x55c338e6db40
blk-set is 4
replacement data 0x55c3389bfcf8
replacement data type 0x55c338e6db40
blk-set is 4
replacement data 0x55c3389bfd00
replacement data type 0x55c338e6db40
blk-set is 4
replacement data 0x55c3389bfd08
replacement data type 0x55c338e6db40
blk-set is 4
replacement data 0x55c3389bfd10
replacement data type 0x55c338e6db40
blk-set is 4
replacement data 0x55c3389bfd18
replacement data type 0x55c338e6db40
blk-set is 4
replacement data 0x55c3389bfd20
replacement data type 0x55c338e6db40
blk-set is 4
replacement data 0x55c3389bfd28
replacement data type 0x55c338e6db40
blk-set is 4
replacement data 0x55c3389bfd30
replacement data type 0x55c338e6db40
blk-set is 4
replacement data 0x55c3389bfd38
replacement data type 0x55c338e6db40
blk-set is 4
replacement data 0x55c3389bfd40
replacement data type 0x55c338e6db40
blk-set is 4
replacement data 0x55c3389bfd48
replacement data type 0x55c338e6db40
blk-set is 4
replacement data 0x55c3389bfd50
replacement data type 0x55c338e6db40
blk-set is 4
replacement data 0x55c3389bfd58
replacement data type 0x55c338e6db40
blk-set is 4
replacement data 0x55c3389bfd60
replacement data type 0x55c338e6db40
blk-set is 4
replacement data 0x55c3389bfd68
replacement data type 0x55c338e6db40
blk-set is 4
replacement data 0x55c3389bfd70
replacement data type 0x55c338e6db40
blk-set is 5
replacement data 0x55c3389bfd78
replacement data type 0x55c338e6db40
blk-set is 5
replacement data 0x55c3389bfd80
replacement data type 0x55c338e6db40
blk-set is 5
replacement data 0x55c3389bfd88
replacement data type 0x55c338e6db40
blk-set is 5
replacement data 0x55c3389bfd90
replacement data type 0x55c338e6db40
blk-set is 5
replacement data 0x55c3389bfd98
replacement data type 0x55c338e6db40
blk-set is 5
replacement data 0x55c3389bfda0
replacement data type 0x55c338e6db40
blk-set is 5
replacement data 0x55c3389bfda8
replacement data type 0x55c338e6db40
blk-set is 5
replacement data 0x55c3389bfdb0
replacement data type 0x55c338e6db40
blk-set is 5
replacement data 0x55c3389bfdb8
replacement data type 0x55c338e6db40
blk-set is 5
replacement data 0x55c3389bfdc0
replacement data type 0x55c338e6db40
blk-set is 5
replacement data 0x55c3389bfdc8
replacement data type 0x55c338e6db40
blk-set is 5
replacement data 0x55c3389bfdd0
replacement data type 0x55c338e6db40
blk-set is 5
replacement data 0x55c3389bfdd8
replacement data type 0x55c338e6db40
blk-set is 5
replacement data 0x55c3389bfde0
replacement data type 0x55c338e6db40
blk-set is 5
replacement data 0x55c3389bfde8
replacement data type 0x55c338e6db40
blk-set is 5
replacement data 0x55c3389bfdf0
replacement data type 0x55c338e6db40
blk-set is 6
replacement data 0x55c3389bfdf8
replacement data type 0x55c338e6db40
blk-set is 6
replacement data 0x55c3389bfe00
replacement data type 0x55c338e6db40
blk-set is 6
replacement data 0x55c3389bfe08
replacement data type 0x55c338e6db40
blk-set is 6
replacement data 0x55c3389bfe10
replacement data type 0x55c338e6db40
blk-set is 6
replacement data 0x55c3389bfe18
replacement data type 0x55c338e6db40
blk-set is 6
replacement data 0x55c3389bfe20
replacement data type 0x55c338e6db40
blk-set is 6
replacement data 0x55c3389bfe28
replacement data type 0x55c338e6db40
blk-set is 6
replacement data 0x55c3389bfe30
replacement data type 0x55c338e6db40
blk-set is 6
replacement data 0x55c3389bfe38
replacement data type 0x55c338e6db40
blk-set is 6
replacement data 0x55c3389bfe40
replacement data type 0x55c338e6db40
blk-set is 6
replacement data 0x55c3389bfe48
replacement data type 0x55c338e6db40
blk-set is 6
replacement data 0x55c3389bfe50
replacement data type 0x55c338e6db40
blk-set is 6
replacement data 0x55c3389bfe58
replacement data type 0x55c338e6db40
blk-set is 6
replacement data 0x55c3389bfe60
replacement data type 0x55c338e6db40
blk-set is 6
replacement data 0x55c3389bfe68
replacement data type 0x55c338e6db40
blk-set is 6
replacement data 0x55c3389bfe70
replacement data type 0x55c338e6db40
blk-set is 7
replacement data 0x55c3389bfe78
replacement data type 0x55c338e6db40
blk-set is 7
replacement data 0x55c3389bfe80
replacement data type 0x55c338e6db40
blk-set is 7
replacement data 0x55c3389bfe88
replacement data type 0x55c338e6db40
blk-set is 7
replacement data 0x55c3389bfe90
replacement data type 0x55c338e6db40
blk-set is 7
replacement data 0x55c3389bfe98
replacement data type 0x55c338e6db40
blk-set is 7
replacement data 0x55c3389bfea0
replacement data type 0x55c338e6db40
blk-set is 7
replacement data 0x55c3389bfea8
replacement data type 0x55c338e6db40
blk-set is 7
replacement data 0x55c3389bfeb0
replacement data type 0x55c338e6db40
blk-set is 7
replacement data 0x55c3389bfeb8
replacement data type 0x55c338e6db40
blk-set is 7
replacement data 0x55c3389bfec0
replacement data type 0x55c338e6db40
blk-set is 7
replacement data 0x55c3389bfec8
replacement data type 0x55c338e6db40
blk-set is 7
replacement data 0x55c3389bfed0
replacement data type 0x55c338e6db40
blk-set is 7
replacement data 0x55c3389bfed8
replacement data type 0x55c338e6db40
blk-set is 7
replacement data 0x55c3389bfee0
replacement data type 0x55c338e6db40
blk-set is 7
replacement data 0x55c3389bfee8
replacement data type 0x55c338e6db40
blk-set is 7
replacement data 0x55c3389bfef0
replacement data type 0x55c338e6db40
blk-set is 8
replacement data 0x55c3389bfef8
replacement data type 0x55c338e6db40
blk-set is 8
replacement data 0x55c3389bff00
replacement data type 0x55c338e6db40
blk-set is 8
replacement data 0x55c3389bff08
replacement data type 0x55c338e6db40
blk-set is 8
replacement data 0x55c3389bff10
replacement data type 0x55c338e6db40
blk-set is 8
replacement data 0x55c3389bff18
replacement data type 0x55c338e6db40
blk-set is 8
replacement data 0x55c3389bff20
replacement data type 0x55c338e6db40
blk-set is 8
replacement data 0x55c3389bff28
replacement data type 0x55c338e6db40
blk-set is 8
replacement data 0x55c3389bff30
replacement data type 0x55c338e6db40
blk-set is 8
replacement data 0x55c3389bff38
replacement data type 0x55c338e6db40
blk-set is 8
replacement data 0x55c3389bff40
replacement data type 0x55c338e6db40
blk-set is 8
replacement data 0x55c3389bff48
replacement data type 0x55c338e6db40
blk-set is 8
replacement data 0x55c3389bff50
replacement data type 0x55c338e6db40
blk-set is 8
replacement data 0x55c3389bff58
replacement data type 0x55c338e6db40
blk-set is 8
replacement data 0x55c3389bff60
replacement data type 0x55c338e6db40
blk-set is 8
replacement data 0x55c3389bff68
replacement data type 0x55c338e6db40
blk-set is 8
replacement data 0x55c3389bff70
replacement data type 0x55c338e6db40
blk-set is 9
replacement data 0x55c3389bff78
replacement data type 0x55c338e6db40
blk-set is 9
replacement data 0x55c3389bff80
replacement data type 0x55c338e6db40
blk-set is 9
replacement data 0x55c3389bff88
replacement data type 0x55c338e6db40
blk-set is 9
replacement data 0x55c3389bff90
replacement data type 0x55c338e6db40
blk-set is 9
replacement data 0x55c3389bff98
replacement data type 0x55c338e6db40
blk-set is 9
replacement data 0x55c3389bffa0
replacement data type 0x55c338e6db40
blk-set is 9
replacement data 0x55c3389bffa8
replacement data type 0x55c338e6db40
blk-set is 9
replacement data 0x55c3389bffb0
replacement data type 0x55c338e6db40
blk-set is 9
replacement data 0x55c3389bffb8
replacement data type 0x55c338e6db40
blk-set is 9
replacement data 0x55c3389bffc0
replacement data type 0x55c338e6db40
blk-set is 9
replacement data 0x55c3389bffc8
replacement data type 0x55c338e6db40
blk-set is 9
replacement data 0x55c3389bffd0
replacement data type 0x55c338e6db40
blk-set is 9
replacement data 0x55c3389bffd8
replacement data type 0x55c338e6db40
blk-set is 9
replacement data 0x55c3389bffe0
replacement data type 0x55c338e6db40
blk-set is 9
replacement data 0x55c3389bffe8
replacement data type 0x55c338e6db40
blk-set is 9
replacement data 0x55c3389bfff0
replacement data type 0x55c338e6db40
blk-set is 10
replacement data 0x55c3389bfff8
replacement data type 0x55c338e6db40
blk-set is 10
replacement data 0x55c339318000
replacement data type 0x55c338e6db40
blk-set is 10
replacement data 0x55c339318008
replacement data type 0x55c338e6db40
blk-set is 10
replacement data 0x55c339318010
replacement data type 0x55c338e6db40
blk-set is 10
replacement data 0x55c339318018
replacement data type 0x55c338e6db40
blk-set is 10
replacement data 0x55c339318020
replacement data type 0x55c338e6db40
blk-set is 10
replacement data 0x55c339318028
replacement data type 0x55c338e6db40
blk-set is 10
replacement data 0x55c339318030
replacement data type 0x55c338e6db40
blk-set is 10
replacement data 0x55c339318038
replacement data type 0x55c338e6db40
blk-set is 10
replacement data 0x55c339318040
replacement data type 0x55c338e6db40
blk-set is 10
replacement data 0x55c339318048
replacement data type 0x55c338e6db40
blk-set is 10
replacement data 0x55c339318050
replacement data type 0x55c338e6db40
blk-set is 10
replacement data 0x55c339318058
replacement data type 0x55c338e6db40
blk-set is 10
replacement data 0x55c339318060
replacement data type 0x55c338e6db40
blk-set is 10
replacement data 0x55c339318068
replacement data type 0x55c338e6db40
blk-set is 10
replacement data 0x55c339318070
replacement data type 0x55c338e6db40
blk-set is 11
replacement data 0x55c339318078
replacement data type 0x55c338e6db40
blk-set is 11
replacement data 0x55c339318080
replacement data type 0x55c338e6db40
blk-set is 11
replacement data 0x55c339318088
replacement data type 0x55c338e6db40
blk-set is 11
replacement data 0x55c339318090
replacement data type 0x55c338e6db40
blk-set is 11
replacement data 0x55c339318098
replacement data type 0x55c338e6db40
blk-set is 11
replacement data 0x55c3393180a0
replacement data type 0x55c338e6db40
blk-set is 11
replacement data 0x55c3393180a8
replacement data type 0x55c338e6db40
blk-set is 11
replacement data 0x55c3393180b0
replacement data type 0x55c338e6db40
blk-set is 11
replacement data 0x55c3393180b8
replacement data type 0x55c338e6db40
blk-set is 11
replacement data 0x55c3393180c0
replacement data type 0x55c338e6db40
blk-set is 11
replacement data 0x55c3393180c8
replacement data type 0x55c338e6db40
blk-set is 11
replacement data 0x55c3393180d0
replacement data type 0x55c338e6db40
blk-set is 11
replacement data 0x55c3393180d8
replacement data type 0x55c338e6db40
blk-set is 11
replacement data 0x55c3393180e0
replacement data type 0x55c338e6db40
blk-set is 11
replacement data 0x55c3393180e8
replacement data type 0x55c338e6db40
blk-set is 11
replacement data 0x55c3393180f0
replacement data type 0x55c338e6db40
blk-set is 12
replacement data 0x55c3393180f8
replacement data type 0x55c338e6db40
blk-set is 12
replacement data 0x55c339318100
replacement data type 0x55c338e6db40
blk-set is 12
replacement data 0x55c339318108
replacement data type 0x55c338e6db40
blk-set is 12
replacement data 0x55c339318110
replacement data type 0x55c338e6db40
blk-set is 12
replacement data 0x55c339318118
replacement data type 0x55c338e6db40
blk-set is 12
replacement data 0x55c339318120
replacement data type 0x55c338e6db40
blk-set is 12
replacement data 0x55c339318128
replacement data type 0x55c338e6db40
blk-set is 12
replacement data 0x55c339318130
replacement data type 0x55c338e6db40
blk-set is 12
replacement data 0x55c339318138
replacement data type 0x55c338e6db40
blk-set is 12
replacement data 0x55c339318140
replacement data type 0x55c338e6db40
blk-set is 12
replacement data 0x55c339318148
replacement data type 0x55c338e6db40
blk-set is 12
replacement data 0x55c339318150
replacement data type 0x55c338e6db40
blk-set is 12
replacement data 0x55c339318158
replacement data type 0x55c338e6db40
blk-set is 12
replacement data 0x55c339318160
replacement data type 0x55c338e6db40
blk-set is 12
replacement data 0x55c339318168
replacement data type 0x55c338e6db40
blk-set is 12
replacement data 0x55c339318170
replacement data type 0x55c338e6db40
blk-set is 13
replacement data 0x55c339318178
replacement data type 0x55c338e6db40
blk-set is 13
replacement data 0x55c339318180
replacement data type 0x55c338e6db40
blk-set is 13
replacement data 0x55c339318188
replacement data type 0x55c338e6db40
blk-set is 13
replacement data 0x55c339318190
replacement data type 0x55c338e6db40
blk-set is 13
replacement data 0x55c339318198
replacement data type 0x55c338e6db40
blk-set is 13
replacement data 0x55c3393181a0
replacement data type 0x55c338e6db40
blk-set is 13
replacement data 0x55c3393181a8
replacement data type 0x55c338e6db40
blk-set is 13
replacement data 0x55c3393181b0
replacement data type 0x55c338e6db40
blk-set is 13
replacement data 0x55c3393181b8
replacement data type 0x55c338e6db40
blk-set is 13
replacement data 0x55c3393181c0
replacement data type 0x55c338e6db40
blk-set is 13
replacement data 0x55c3393181c8
replacement data type 0x55c338e6db40
blk-set is 13
replacement data 0x55c3393181d0
replacement data type 0x55c338e6db40
blk-set is 13
replacement data 0x55c3393181d8
replacement data type 0x55c338e6db40
blk-set is 13
replacement data 0x55c3393181e0
replacement data type 0x55c338e6db40
blk-set is 13
replacement data 0x55c3393181e8
replacement data type 0x55c338e6db40
blk-set is 13
replacement data 0x55c3393181f0
replacement data type 0x55c338e6db40
blk-set is 14
replacement data 0x55c3393181f8
replacement data type 0x55c338e6db40
blk-set is 14
replacement data 0x55c339318200
replacement data type 0x55c338e6db40
blk-set is 14
replacement data 0x55c339318208
replacement data type 0x55c338e6db40
blk-set is 14
replacement data 0x55c339318210
replacement data type 0x55c338e6db40
blk-set is 14
replacement data 0x55c339318218
replacement data type 0x55c338e6db40
blk-set is 14
replacement data 0x55c339318220
replacement data type 0x55c338e6db40
blk-set is 14
replacement data 0x55c339318228
replacement data type 0x55c338e6db40
blk-set is 14
replacement data 0x55c339318230
replacement data type 0x55c338e6db40
blk-set is 14
replacement data 0x55c339318238
replacement data type 0x55c338e6db40
blk-set is 14
replacement data 0x55c339318240
replacement data type 0x55c338e6db40
blk-set is 14
replacement data 0x55c339318248
replacement data type 0x55c338e6db40
blk-set is 14
replacement data 0x55c339318250
replacement data type 0x55c338e6db40
blk-set is 14
replacement data 0x55c339318258
replacement data type 0x55c338e6db40
blk-set is 14
replacement data 0x55c339318260
replacement data type 0x55c338e6db40
blk-set is 14
replacement data 0x55c339318268
replacement data type 0x55c338e6db40
blk-set is 14
replacement data 0x55c339318270
replacement data type 0x55c338e6db40
blk-set is 15
replacement data 0x55c339318278
replacement data type 0x55c338e6db40
blk-set is 15
replacement data 0x55c339318280
replacement data type 0x55c338e6db40
blk-set is 15
replacement data 0x55c339318288
replacement data type 0x55c338e6db40
blk-set is 15
replacement data 0x55c339318290
replacement data type 0x55c338e6db40
blk-set is 15
replacement data 0x55c339318298
replacement data type 0x55c338e6db40
blk-set is 15
replacement data 0x55c3393182a0
replacement data type 0x55c338e6db40
blk-set is 15
replacement data 0x55c3393182a8
replacement data type 0x55c338e6db40
blk-set is 15
replacement data 0x55c3393182b0
replacement data type 0x55c338e6db40
blk-set is 15
replacement data 0x55c3393182b8
replacement data type 0x55c338e6db40
blk-set is 15
replacement data 0x55c3393182c0
replacement data type 0x55c338e6db40
blk-set is 15
replacement data 0x55c3393182c8
replacement data type 0x55c338e6db40
blk-set is 15
replacement data 0x55c3393182d0
replacement data type 0x55c338e6db40
blk-set is 15
replacement data 0x55c3393182d8
replacement data type 0x55c338e6db40
blk-set is 15
replacement data 0x55c3393182e0
replacement data type 0x55c338e6db40
blk-set is 15
replacement data 0x55c3393182e8
replacement data type 0x55c338e6db40
blk-set is 15
replacement data 0x55c3393182f0
replacement data type 0x55c338e6db40
blk-set is 16
replacement data 0x55c3393182f8
replacement data type 0x55c338e6db40
blk-set is 16
replacement data 0x55c339318300
replacement data type 0x55c338e6db40
blk-set is 16
replacement data 0x55c339318308
replacement data type 0x55c338e6db40
blk-set is 16
replacement data 0x55c339318310
replacement data type 0x55c338e6db40
blk-set is 16
replacement data 0x55c339318318
replacement data type 0x55c338e6db40
blk-set is 16
replacement data 0x55c339318320
replacement data type 0x55c338e6db40
blk-set is 16
replacement data 0x55c339318328
replacement data type 0x55c338e6db40
blk-set is 16
replacement data 0x55c339318330
replacement data type 0x55c338e6db40
blk-set is 16
replacement data 0x55c339318338
replacement data type 0x55c338e6db40
blk-set is 16
replacement data 0x55c339318340
replacement data type 0x55c338e6db40
blk-set is 16
replacement data 0x55c339318348
replacement data type 0x55c338e6db40
blk-set is 16
replacement data 0x55c339318350
replacement data type 0x55c338e6db40
blk-set is 16
replacement data 0x55c339318358
replacement data type 0x55c338e6db40
blk-set is 16
replacement data 0x55c339318360
replacement data type 0x55c338e6db40
blk-set is 16
replacement data 0x55c339318368
replacement data type 0x55c338e6db40
blk-set is 16
replacement data 0x55c339318370
replacement data type 0x55c338e6db40
blk-set is 17
replacement data 0x55c339318378
replacement data type 0x55c338e6db40
blk-set is 17
replacement data 0x55c339318380
replacement data type 0x55c338e6db40
blk-set is 17
replacement data 0x55c339318388
replacement data type 0x55c338e6db40
blk-set is 17
replacement data 0x55c339318390
replacement data type 0x55c338e6db40
blk-set is 17
replacement data 0x55c339318398
replacement data type 0x55c338e6db40
blk-set is 17
replacement data 0x55c3393183a0
replacement data type 0x55c338e6db40
blk-set is 17
replacement data 0x55c3393183a8
replacement data type 0x55c338e6db40
blk-set is 17
replacement data 0x55c3393183b0
replacement data type 0x55c338e6db40
blk-set is 17
replacement data 0x55c3393183b8
replacement data type 0x55c338e6db40
blk-set is 17
replacement data 0x55c3393183c0
replacement data type 0x55c338e6db40
blk-set is 17
replacement data 0x55c3393183c8
replacement data type 0x55c338e6db40
blk-set is 17
replacement data 0x55c3393183d0
replacement data type 0x55c338e6db40
blk-set is 17
replacement data 0x55c3393183d8
replacement data type 0x55c338e6db40
blk-set is 17
replacement data 0x55c3393183e0
replacement data type 0x55c338e6db40
blk-set is 17
replacement data 0x55c3393183e8
replacement data type 0x55c338e6db40
blk-set is 17
replacement data 0x55c3393183f0
replacement data type 0x55c338e6db40
blk-set is 18
replacement data 0x55c3393183f8
replacement data type 0x55c338e6db40
blk-set is 18
replacement data 0x55c339318400
replacement data type 0x55c338e6db40
blk-set is 18
replacement data 0x55c339318408
replacement data type 0x55c338e6db40
blk-set is 18
replacement data 0x55c339318410
replacement data type 0x55c338e6db40
blk-set is 18
replacement data 0x55c339318418
replacement data type 0x55c338e6db40
blk-set is 18
replacement data 0x55c339318420
replacement data type 0x55c338e6db40
blk-set is 18
replacement data 0x55c339318428
replacement data type 0x55c338e6db40
blk-set is 18
replacement data 0x55c339318430
replacement data type 0x55c338e6db40
blk-set is 18
replacement data 0x55c339318438
replacement data type 0x55c338e6db40
blk-set is 18
replacement data 0x55c339318440
replacement data type 0x55c338e6db40
blk-set is 18
replacement data 0x55c339318448
replacement data type 0x55c338e6db40
blk-set is 18
replacement data 0x55c339318450
replacement data type 0x55c338e6db40
blk-set is 18
replacement data 0x55c339318458
replacement data type 0x55c338e6db40
blk-set is 18
replacement data 0x55c339318460
replacement data type 0x55c338e6db40
blk-set is 18
replacement data 0x55c339318468
replacement data type 0x55c338e6db40
blk-set is 18
replacement data 0x55c339318470
replacement data type 0x55c338e6db40
blk-set is 19
replacement data 0x55c339318478
replacement data type 0x55c338e6db40
blk-set is 19
replacement data 0x55c339318480
replacement data type 0x55c338e6db40
blk-set is 19
replacement data 0x55c339318488
replacement data type 0x55c338e6db40
blk-set is 19
replacement data 0x55c339318490
replacement data type 0x55c338e6db40
blk-set is 19
replacement data 0x55c339318498
replacement data type 0x55c338e6db40
blk-set is 19
replacement data 0x55c3393184a0
replacement data type 0x55c338e6db40
blk-set is 19
replacement data 0x55c3393184a8
replacement data type 0x55c338e6db40
blk-set is 19
replacement data 0x55c3393184b0
replacement data type 0x55c338e6db40
blk-set is 19
replacement data 0x55c3393184b8
replacement data type 0x55c338e6db40
blk-set is 19
replacement data 0x55c3393184c0
replacement data type 0x55c338e6db40
blk-set is 19
replacement data 0x55c3393184c8
replacement data type 0x55c338e6db40
blk-set is 19
replacement data 0x55c3393184d0
replacement data type 0x55c338e6db40
blk-set is 19
replacement data 0x55c3393184d8
replacement data type 0x55c338e6db40
blk-set is 19
replacement data 0x55c3393184e0
replacement data type 0x55c338e6db40
blk-set is 19
replacement data 0x55c3393184e8
replacement data type 0x55c338e6db40
blk-set is 19
replacement data 0x55c3393184f0
replacement data type 0x55c338e6db40
blk-set is 20
replacement data 0x55c3393184f8
replacement data type 0x55c338e6db40
blk-set is 20
replacement data 0x55c339318500
replacement data type 0x55c338e6db40
blk-set is 20
replacement data 0x55c339318508
replacement data type 0x55c338e6db40
blk-set is 20
replacement data 0x55c339318510
replacement data type 0x55c338e6db40
blk-set is 20
replacement data 0x55c339318518
replacement data type 0x55c338e6db40
blk-set is 20
replacement data 0x55c339318520
replacement data type 0x55c338e6db40
blk-set is 20
replacement data 0x55c339318528
replacement data type 0x55c338e6db40
blk-set is 20
replacement data 0x55c339318530
replacement data type 0x55c338e6db40
blk-set is 20
replacement data 0x55c339318538
replacement data type 0x55c338e6db40
blk-set is 20
replacement data 0x55c339318540
replacement data type 0x55c338e6db40
blk-set is 20
replacement data 0x55c339318548
replacement data type 0x55c338e6db40
blk-set is 20
replacement data 0x55c339318550
replacement data type 0x55c338e6db40
blk-set is 20
replacement data 0x55c339318558
replacement data type 0x55c338e6db40
blk-set is 20
replacement data 0x55c339318560
replacement data type 0x55c338e6db40
blk-set is 20
replacement data 0x55c339318568
replacement data type 0x55c338e6db40
blk-set is 20
replacement data 0x55c339318570
replacement data type 0x55c338e6db40
blk-set is 21
replacement data 0x55c339318578
replacement data type 0x55c338e6db40
blk-set is 21
replacement data 0x55c339318580
replacement data type 0x55c338e6db40
blk-set is 21
replacement data 0x55c339318588
replacement data type 0x55c338e6db40
blk-set is 21
replacement data 0x55c339318590
replacement data type 0x55c338e6db40
blk-set is 21
replacement data 0x55c339318598
replacement data type 0x55c338e6db40
blk-set is 21
replacement data 0x55c3393185a0
replacement data type 0x55c338e6db40
blk-set is 21
replacement data 0x55c3393185a8
replacement data type 0x55c338e6db40
blk-set is 21
replacement data 0x55c3393185b0
replacement data type 0x55c338e6db40
blk-set is 21
replacement data 0x55c3393185b8
replacement data type 0x55c338e6db40
blk-set is 21
replacement data 0x55c3393185c0
replacement data type 0x55c338e6db40
blk-set is 21
replacement data 0x55c3393185c8
replacement data type 0x55c338e6db40
blk-set is 21
replacement data 0x55c3393185d0
replacement data type 0x55c338e6db40
blk-set is 21
replacement data 0x55c3393185d8
replacement data type 0x55c338e6db40
blk-set is 21
replacement data 0x55c3393185e0
replacement data type 0x55c338e6db40
blk-set is 21
replacement data 0x55c3393185e8
replacement data type 0x55c338e6db40
blk-set is 21
replacement data 0x55c3393185f0
replacement data type 0x55c338e6db40
blk-set is 22
replacement data 0x55c3393185f8
replacement data type 0x55c338e6db40
blk-set is 22
replacement data 0x55c339318600
replacement data type 0x55c338e6db40
blk-set is 22
replacement data 0x55c339318608
replacement data type 0x55c338e6db40
blk-set is 22
replacement data 0x55c339318610
replacement data type 0x55c338e6db40
blk-set is 22
replacement data 0x55c339318618
replacement data type 0x55c338e6db40
blk-set is 22
replacement data 0x55c339318620
replacement data type 0x55c338e6db40
blk-set is 22
replacement data 0x55c339318628
replacement data type 0x55c338e6db40
blk-set is 22
replacement data 0x55c339318630
replacement data type 0x55c338e6db40
blk-set is 22
replacement data 0x55c339318638
replacement data type 0x55c338e6db40
blk-set is 22
replacement data 0x55c339318640
replacement data type 0x55c338e6db40
blk-set is 22
replacement data 0x55c339318648
replacement data type 0x55c338e6db40
blk-set is 22
replacement data 0x55c339318650
replacement data type 0x55c338e6db40
blk-set is 22
replacement data 0x55c339318658
replacement data type 0x55c338e6db40
blk-set is 22
replacement data 0x55c339318660
replacement data type 0x55c338e6db40
blk-set is 22
replacement data 0x55c339318668
replacement data type 0x55c338e6db40
blk-set is 22
replacement data 0x55c339318670
replacement data type 0x55c338e6db40
blk-set is 23
replacement data 0x55c339318678
replacement data type 0x55c338e6db40
blk-set is 23
replacement data 0x55c339318680
replacement data type 0x55c338e6db40
blk-set is 23
replacement data 0x55c339318688
replacement data type 0x55c338e6db40
blk-set is 23
replacement data 0x55c339318690
replacement data type 0x55c338e6db40
blk-set is 23
replacement data 0x55c339318698
replacement data type 0x55c338e6db40
blk-set is 23
replacement data 0x55c3393186a0
replacement data type 0x55c338e6db40
blk-set is 23
replacement data 0x55c3393186a8
replacement data type 0x55c338e6db40
blk-set is 23
replacement data 0x55c3393186b0
replacement data type 0x55c338e6db40
blk-set is 23
replacement data 0x55c3393186b8
replacement data type 0x55c338e6db40
blk-set is 23
replacement data 0x55c3393186c0
replacement data type 0x55c338e6db40
blk-set is 23
replacement data 0x55c3393186c8
replacement data type 0x55c338e6db40
blk-set is 23
replacement data 0x55c3393186d0
replacement data type 0x55c338e6db40
blk-set is 23
replacement data 0x55c3393186d8
replacement data type 0x55c338e6db40
blk-set is 23
replacement data 0x55c3393186e0
replacement data type 0x55c338e6db40
blk-set is 23
replacement data 0x55c3393186e8
replacement data type 0x55c338e6db40
blk-set is 23
replacement data 0x55c3393186f0
replacement data type 0x55c338e6db40
blk-set is 24
replacement data 0x55c3393186f8
replacement data type 0x55c338e6db40
blk-set is 24
replacement data 0x55c339318700
replacement data type 0x55c338e6db40
blk-set is 24
replacement data 0x55c339318708
replacement data type 0x55c338e6db40
blk-set is 24
replacement data 0x55c339318710
replacement data type 0x55c338e6db40
blk-set is 24
replacement data 0x55c339318718
replacement data type 0x55c338e6db40
blk-set is 24
replacement data 0x55c339318720
replacement data type 0x55c338e6db40
blk-set is 24
replacement data 0x55c339318728
replacement data type 0x55c338e6db40
blk-set is 24
replacement data 0x55c339318730
replacement data type 0x55c338e6db40
blk-set is 24
replacement data 0x55c339318738
replacement data type 0x55c338e6db40
blk-set is 24
replacement data 0x55c339318740
replacement data type 0x55c338e6db40
blk-set is 24
replacement data 0x55c339318748
replacement data type 0x55c338e6db40
blk-set is 24
replacement data 0x55c339318750
replacement data type 0x55c338e6db40
blk-set is 24
replacement data 0x55c339318758
replacement data type 0x55c338e6db40
blk-set is 24
replacement data 0x55c339318760
replacement data type 0x55c338e6db40
blk-set is 24
replacement data 0x55c339318768
replacement data type 0x55c338e6db40
blk-set is 24
replacement data 0x55c339318770
replacement data type 0x55c338e6db40
blk-set is 25
replacement data 0x55c339318778
replacement data type 0x55c338e6db40
blk-set is 25
replacement data 0x55c339318780
replacement data type 0x55c338e6db40
blk-set is 25
replacement data 0x55c339318788
replacement data type 0x55c338e6db40
blk-set is 25
replacement data 0x55c339318790
replacement data type 0x55c338e6db40
blk-set is 25
replacement data 0x55c339318798
replacement data type 0x55c338e6db40
blk-set is 25
replacement data 0x55c3393187a0
replacement data type 0x55c338e6db40
blk-set is 25
replacement data 0x55c3393187a8
replacement data type 0x55c338e6db40
blk-set is 25
replacement data 0x55c3393187b0
replacement data type 0x55c338e6db40
blk-set is 25
replacement data 0x55c3393187b8
replacement data type 0x55c338e6db40
blk-set is 25
replacement data 0x55c3393187c0
replacement data type 0x55c338e6db40
blk-set is 25
replacement data 0x55c3393187c8
replacement data type 0x55c338e6db40
blk-set is 25
replacement data 0x55c3393187d0
replacement data type 0x55c338e6db40
blk-set is 25
replacement data 0x55c3393187d8
replacement data type 0x55c338e6db40
blk-set is 25
replacement data 0x55c3393187e0
replacement data type 0x55c338e6db40
blk-set is 25
replacement data 0x55c3393187e8
replacement data type 0x55c338e6db40
blk-set is 25
replacement data 0x55c3393187f0
replacement data type 0x55c338e6db40
blk-set is 26
replacement data 0x55c3393187f8
replacement data type 0x55c338e6db40
blk-set is 26
replacement data 0x55c339318800
replacement data type 0x55c338e6db40
blk-set is 26
replacement data 0x55c339318808
replacement data type 0x55c338e6db40
blk-set is 26
replacement data 0x55c339318810
replacement data type 0x55c338e6db40
blk-set is 26
replacement data 0x55c339318818
replacement data type 0x55c338e6db40
blk-set is 26
replacement data 0x55c339318820
replacement data type 0x55c338e6db40
blk-set is 26
replacement data 0x55c339318828
replacement data type 0x55c338e6db40
blk-set is 26
replacement data 0x55c339318830
replacement data type 0x55c338e6db40
blk-set is 26
replacement data 0x55c339318838
replacement data type 0x55c338e6db40
blk-set is 26
replacement data 0x55c339318840
replacement data type 0x55c338e6db40
blk-set is 26
replacement data 0x55c339318848
replacement data type 0x55c338e6db40
blk-set is 26
replacement data 0x55c339318850
replacement data type 0x55c338e6db40
blk-set is 26
replacement data 0x55c339318858
replacement data type 0x55c338e6db40
blk-set is 26
replacement data 0x55c339318860
replacement data type 0x55c338e6db40
blk-set is 26
replacement data 0x55c339318868
replacement data type 0x55c338e6db40
blk-set is 26
replacement data 0x55c339318870
replacement data type 0x55c338e6db40
blk-set is 27
replacement data 0x55c339318878
replacement data type 0x55c338e6db40
blk-set is 27
replacement data 0x55c339318880
replacement data type 0x55c338e6db40
blk-set is 27
replacement data 0x55c339318888
replacement data type 0x55c338e6db40
blk-set is 27
replacement data 0x55c339318890
replacement data type 0x55c338e6db40
blk-set is 27
replacement data 0x55c339318898
replacement data type 0x55c338e6db40
blk-set is 27
replacement data 0x55c3393188a0
replacement data type 0x55c338e6db40
blk-set is 27
replacement data 0x55c3393188a8
replacement data type 0x55c338e6db40
blk-set is 27
replacement data 0x55c3393188b0
replacement data type 0x55c338e6db40
blk-set is 27
replacement data 0x55c3393188b8
replacement data type 0x55c338e6db40
blk-set is 27
replacement data 0x55c3393188c0
replacement data type 0x55c338e6db40
blk-set is 27
replacement data 0x55c3393188c8
replacement data type 0x55c338e6db40
blk-set is 27
replacement data 0x55c3393188d0
replacement data type 0x55c338e6db40
blk-set is 27
replacement data 0x55c3393188d8
replacement data type 0x55c338e6db40
blk-set is 27
replacement data 0x55c3393188e0
replacement data type 0x55c338e6db40
blk-set is 27
replacement data 0x55c3393188e8
replacement data type 0x55c338e6db40
blk-set is 27
replacement data 0x55c3393188f0
replacement data type 0x55c338e6db40
blk-set is 28
replacement data 0x55c3393188f8
replacement data type 0x55c338e6db40
blk-set is 28
replacement data 0x55c339318900
replacement data type 0x55c338e6db40
blk-set is 28
replacement data 0x55c339318908
replacement data type 0x55c338e6db40
blk-set is 28
replacement data 0x55c339318910
replacement data type 0x55c338e6db40
blk-set is 28
replacement data 0x55c339318918
replacement data type 0x55c338e6db40
blk-set is 28
replacement data 0x55c339318920
replacement data type 0x55c338e6db40
blk-set is 28
replacement data 0x55c339318928
replacement data type 0x55c338e6db40
blk-set is 28
replacement data 0x55c339318930
replacement data type 0x55c338e6db40
blk-set is 28
replacement data 0x55c339318938
replacement data type 0x55c338e6db40
blk-set is 28
replacement data 0x55c339318940
replacement data type 0x55c338e6db40
blk-set is 28
replacement data 0x55c339318948
replacement data type 0x55c338e6db40
blk-set is 28
replacement data 0x55c339318950
replacement data type 0x55c338e6db40
blk-set is 28
replacement data 0x55c339318958
replacement data type 0x55c338e6db40
blk-set is 28
replacement data 0x55c339318960
replacement data type 0x55c338e6db40
blk-set is 28
replacement data 0x55c339318968
replacement data type 0x55c338e6db40
blk-set is 28
replacement data 0x55c339318970
replacement data type 0x55c338e6db40
blk-set is 29
replacement data 0x55c339318978
replacement data type 0x55c338e6db40
blk-set is 29
replacement data 0x55c339318980
replacement data type 0x55c338e6db40
blk-set is 29
replacement data 0x55c339318988
replacement data type 0x55c338e6db40
blk-set is 29
replacement data 0x55c339318990
replacement data type 0x55c338e6db40
blk-set is 29
replacement data 0x55c339318998
replacement data type 0x55c338e6db40
blk-set is 29
replacement data 0x55c3393189a0
replacement data type 0x55c338e6db40
blk-set is 29
replacement data 0x55c3393189a8
replacement data type 0x55c338e6db40
blk-set is 29
replacement data 0x55c3393189b0
replacement data type 0x55c338e6db40
blk-set is 29
replacement data 0x55c3393189b8
replacement data type 0x55c338e6db40
blk-set is 29
replacement data 0x55c3393189c0
replacement data type 0x55c338e6db40
blk-set is 29
replacement data 0x55c3393189c8
replacement data type 0x55c338e6db40
blk-set is 29
replacement data 0x55c3393189d0
replacement data type 0x55c338e6db40
blk-set is 29
replacement data 0x55c3393189d8
replacement data type 0x55c338e6db40
blk-set is 29
replacement data 0x55c3393189e0
replacement data type 0x55c338e6db40
blk-set is 29
replacement data 0x55c3393189e8
replacement data type 0x55c338e6db40
blk-set is 29
replacement data 0x55c3393189f0
replacement data type 0x55c338e6db40
blk-set is 30
replacement data 0x55c3393189f8
replacement data type 0x55c338e6db40
blk-set is 30
replacement data 0x55c339318a00
replacement data type 0x55c338e6db40
blk-set is 30
replacement data 0x55c339318a08
replacement data type 0x55c338e6db40
blk-set is 30
replacement data 0x55c339318a10
replacement data type 0x55c338e6db40
blk-set is 30
replacement data 0x55c339318a18
replacement data type 0x55c338e6db40
blk-set is 30
replacement data 0x55c339318a20
replacement data type 0x55c338e6db40
blk-set is 30
replacement data 0x55c339318a28
replacement data type 0x55c338e6db40
blk-set is 30
replacement data 0x55c339318a30
replacement data type 0x55c338e6db40
blk-set is 30
replacement data 0x55c339318a38
replacement data type 0x55c338e6db40
blk-set is 30
replacement data 0x55c339318a40
replacement data type 0x55c338e6db40
blk-set is 30
replacement data 0x55c339318a48
replacement data type 0x55c338e6db40
blk-set is 30
replacement data 0x55c339318a50
replacement data type 0x55c338e6db40
blk-set is 30
replacement data 0x55c339318a58
replacement data type 0x55c338e6db40
blk-set is 30
replacement data 0x55c339318a60
replacement data type 0x55c338e6db40
blk-set is 30
replacement data 0x55c339318a68
replacement data type 0x55c338e6db40
blk-set is 30
replacement data 0x55c339318a70
replacement data type 0x55c338e6db40
blk-set is 31
replacement data 0x55c339318a78
replacement data type 0x55c338e6db40
blk-set is 31
replacement data 0x55c339318a80
replacement data type 0x55c338e6db40
blk-set is 31
replacement data 0x55c339318a88
replacement data type 0x55c338e6db40
blk-set is 31
replacement data 0x55c339318a90
replacement data type 0x55c338e6db40
blk-set is 31
replacement data 0x55c339318a98
replacement data type 0x55c338e6db40
blk-set is 31
replacement data 0x55c339318aa0
replacement data type 0x55c338e6db40
blk-set is 31
replacement data 0x55c339318aa8
replacement data type 0x55c338e6db40
blk-set is 31
replacement data 0x55c339318ab0
replacement data type 0x55c338e6db40
blk-set is 31
replacement data 0x55c339318ab8
replacement data type 0x55c338e6db40
blk-set is 31
replacement data 0x55c339318ac0
replacement data type 0x55c338e6db40
blk-set is 31
replacement data 0x55c339318ac8
replacement data type 0x55c338e6db40
blk-set is 31
replacement data 0x55c339318ad0
replacement data type 0x55c338e6db40
blk-set is 31
replacement data 0x55c339318ad8
replacement data type 0x55c338e6db40
blk-set is 31
replacement data 0x55c339318ae0
replacement data type 0x55c338e6db40
blk-set is 31
replacement data 0x55c339318ae8
replacement data type 0x55c338e6db40
blk-set is 31
**** REAL SIMULATION ****
Shortest path is 1 in cost. Path is:  0 41 45 51 50
Shortest path is 0 in cost. Path is:  1 58 57 20 40 17 65 73 36 46 10 38 41 45 51
Shortest path is 1 in cost. Path is:  2 71 47 79 23 77 1 58 57 20 40 17 52
Shortest path is 2 in cost. Path is:  3 53
Shortest path is 1 in cost. Path is:  4 85 83 58 33 13 19 79 23 77 1 54
Shortest path is 3 in cost. Path is:  5 26 23 77 1 58 99 3 21 70 55
Shortest path is 3 in cost. Path is:  6 42 80 77 1 58 99 3 21 70 55 56
Shortest path is 0 in cost. Path is:  7 17 65 73 36 46 10 58 57
Shortest path is 0 in cost. Path is:  8 37 63 72 46 10 58
Shortest path is 1 in cost. Path is:  9 33 13 19 79 23 77 1 59
Shortest path is 0 in cost. Path is:  10 60
Shortest path is 5 in cost. Path is:  11 22 20 40 17 65 73 36 46 10 29 61
Shortest path is 0 in cost. Path is:  12 37 63 72 46 10 58 99 3 21 70 62
Shortest path is 0 in cost. Path is:  13 19 79 23 77 1 58 99 3 21 70 55 12 37 63
Shortest path is 1 in cost. Path is:  14 38 41 45 51 68 2 71 47 79 23 77 1 58 33 13 92 64
Shortest path is 1 in cost. Path is:  15 13 92 94 11 22 20 40 17 65
Shortest path is 3 in cost. Path is:  16 41 45 51 68 2 71 47 79 23 77 1 58 33 32 66
Shortest path is 0 in cost. Path is:  17 65 73 36 46 10 58 33 13 19 79 23 91 67
Shortest path is 1 in cost. Path is:  18 15 41 45 51 68
Shortest path is 2 in cost. Path is:  19 69
Exiting @ tick 125742614500 because exiting with last active thread context
